* NGSPICE file created from DigitalClock.ext - technology: gf180mcuD

* Black-box entry subcircuit for gf180mcu_fd_sc_mcu7t5v0__fill_1 abstract view
.subckt gf180mcu_fd_sc_mcu7t5v0__fill_1 VDD VNW VPW VSS
.ends

* Black-box entry subcircuit for gf180mcu_fd_sc_mcu7t5v0__fillcap_16 abstract view
.subckt gf180mcu_fd_sc_mcu7t5v0__fillcap_16 VDD VNW VPW VSS
.ends

* Black-box entry subcircuit for gf180mcu_fd_sc_mcu7t5v0__clkbuf_1 abstract view
.subckt gf180mcu_fd_sc_mcu7t5v0__clkbuf_1 I Z VDD VNW VPW VSS
.ends

* Black-box entry subcircuit for gf180mcu_fd_sc_mcu7t5v0__dffq_1 abstract view
.subckt gf180mcu_fd_sc_mcu7t5v0__dffq_1 D CLK Q VDD VNW VPW VSS
.ends

* Black-box entry subcircuit for gf180mcu_fd_sc_mcu7t5v0__nand2_1 abstract view
.subckt gf180mcu_fd_sc_mcu7t5v0__nand2_1 A1 A2 ZN VDD VNW VPW VSS
.ends

* Black-box entry subcircuit for gf180mcu_fd_sc_mcu7t5v0__aoi211_1 abstract view
.subckt gf180mcu_fd_sc_mcu7t5v0__aoi211_1 A1 A2 B C ZN VDD VNW VPW VSS
.ends

* Black-box entry subcircuit for gf180mcu_fd_sc_mcu7t5v0__filltie abstract view
.subckt gf180mcu_fd_sc_mcu7t5v0__filltie VDD VSS
.ends

* Black-box entry subcircuit for gf180mcu_fd_sc_mcu7t5v0__aoi21_2 abstract view
.subckt gf180mcu_fd_sc_mcu7t5v0__aoi21_2 A1 A2 B ZN VDD VNW VPW VSS
.ends

* Black-box entry subcircuit for gf180mcu_fd_sc_mcu7t5v0__aoi21_1 abstract view
.subckt gf180mcu_fd_sc_mcu7t5v0__aoi21_1 A1 A2 B ZN VDD VNW VPW VSS
.ends

* Black-box entry subcircuit for gf180mcu_fd_sc_mcu7t5v0__fill_2 abstract view
.subckt gf180mcu_fd_sc_mcu7t5v0__fill_2 VDD VNW VPW VSS
.ends

* Black-box entry subcircuit for gf180mcu_fd_sc_mcu7t5v0__fillcap_4 abstract view
.subckt gf180mcu_fd_sc_mcu7t5v0__fillcap_4 VDD VNW VPW VSS
.ends

* Black-box entry subcircuit for gf180mcu_fd_sc_mcu7t5v0__nand3_1 abstract view
.subckt gf180mcu_fd_sc_mcu7t5v0__nand3_1 A1 A2 A3 ZN VDD VNW VPW VSS
.ends

* Black-box entry subcircuit for gf180mcu_fd_sc_mcu7t5v0__fillcap_32 abstract view
.subckt gf180mcu_fd_sc_mcu7t5v0__fillcap_32 VDD VNW VPW VSS
.ends

* Black-box entry subcircuit for gf180mcu_fd_sc_mcu7t5v0__antenna abstract view
.subckt gf180mcu_fd_sc_mcu7t5v0__antenna I VDD VNW VPW VSS
.ends

* Black-box entry subcircuit for gf180mcu_fd_sc_mcu7t5v0__buf_8 abstract view
.subckt gf180mcu_fd_sc_mcu7t5v0__buf_8 I Z VDD VNW VPW VSS
.ends

* Black-box entry subcircuit for gf180mcu_fd_sc_mcu7t5v0__fillcap_8 abstract view
.subckt gf180mcu_fd_sc_mcu7t5v0__fillcap_8 VDD VNW VPW VSS
.ends

* Black-box entry subcircuit for gf180mcu_fd_sc_mcu7t5v0__clkinv_1 abstract view
.subckt gf180mcu_fd_sc_mcu7t5v0__clkinv_1 I ZN VDD VNW VPW VSS
.ends

* Black-box entry subcircuit for gf180mcu_fd_sc_mcu7t5v0__nor2_1 abstract view
.subckt gf180mcu_fd_sc_mcu7t5v0__nor2_1 A1 A2 ZN VDD VNW VPW VSS
.ends

* Black-box entry subcircuit for gf180mcu_fd_sc_mcu7t5v0__endcap abstract view
.subckt gf180mcu_fd_sc_mcu7t5v0__endcap VDD VSS
.ends

* Black-box entry subcircuit for gf180mcu_fd_sc_mcu7t5v0__inv_1 abstract view
.subckt gf180mcu_fd_sc_mcu7t5v0__inv_1 I ZN VDD VNW VPW VSS
.ends

* Black-box entry subcircuit for gf180mcu_fd_sc_mcu7t5v0__nand4_1 abstract view
.subckt gf180mcu_fd_sc_mcu7t5v0__nand4_1 A1 A2 A3 A4 ZN VDD VNW VPW VSS
.ends

* Black-box entry subcircuit for gf180mcu_fd_sc_mcu7t5v0__xnor2_1 abstract view
.subckt gf180mcu_fd_sc_mcu7t5v0__xnor2_1 A1 A2 ZN VDD VNW VPW VSS
.ends

* Black-box entry subcircuit for gf180mcu_fd_sc_mcu7t5v0__nand3_2 abstract view
.subckt gf180mcu_fd_sc_mcu7t5v0__nand3_2 A1 A2 A3 ZN VDD VNW VPW VSS
.ends

* Black-box entry subcircuit for gf180mcu_fd_sc_mcu7t5v0__nor4_2 abstract view
.subckt gf180mcu_fd_sc_mcu7t5v0__nor4_2 A1 A2 A3 A4 ZN VDD VNW VPW VSS
.ends

* Black-box entry subcircuit for gf180mcu_fd_sc_mcu7t5v0__nor3_1 abstract view
.subckt gf180mcu_fd_sc_mcu7t5v0__nor3_1 A1 A2 A3 ZN VDD VNW VPW VSS
.ends

* Black-box entry subcircuit for gf180mcu_fd_sc_mcu7t5v0__and2_2 abstract view
.subckt gf180mcu_fd_sc_mcu7t5v0__and2_2 A1 A2 Z VDD VNW VPW VSS
.ends

* Black-box entry subcircuit for gf180mcu_fd_sc_mcu7t5v0__and2_1 abstract view
.subckt gf180mcu_fd_sc_mcu7t5v0__and2_1 A1 A2 Z VDD VNW VPW VSS
.ends

* Black-box entry subcircuit for gf180mcu_fd_sc_mcu7t5v0__clkbuf_2 abstract view
.subckt gf180mcu_fd_sc_mcu7t5v0__clkbuf_2 I Z VDD VNW VPW VSS
.ends

* Black-box entry subcircuit for gf180mcu_fd_sc_mcu7t5v0__xor2_1 abstract view
.subckt gf180mcu_fd_sc_mcu7t5v0__xor2_1 A1 A2 Z VDD VNW VPW VSS
.ends

* Black-box entry subcircuit for gf180mcu_fd_sc_mcu7t5v0__and4_1 abstract view
.subckt gf180mcu_fd_sc_mcu7t5v0__and4_1 A1 A2 A3 A4 Z VDD VNW VPW VSS
.ends

* Black-box entry subcircuit for gf180mcu_fd_sc_mcu7t5v0__or2_1 abstract view
.subckt gf180mcu_fd_sc_mcu7t5v0__or2_1 A1 A2 Z VDD VNW VPW VSS
.ends

* Black-box entry subcircuit for gf180mcu_fd_sc_mcu7t5v0__buf_1 abstract view
.subckt gf180mcu_fd_sc_mcu7t5v0__buf_1 I Z VDD VNW VPW VSS
.ends

* Black-box entry subcircuit for gf180mcu_fd_sc_mcu7t5v0__nand4_4 abstract view
.subckt gf180mcu_fd_sc_mcu7t5v0__nand4_4 A1 A2 A3 A4 ZN VDD VNW VPW VSS
.ends

* Black-box entry subcircuit for gf180mcu_fd_sc_mcu7t5v0__and3_1 abstract view
.subckt gf180mcu_fd_sc_mcu7t5v0__and3_1 A1 A2 A3 Z VDD VNW VPW VSS
.ends

* Black-box entry subcircuit for gf180mcu_fd_sc_mcu7t5v0__fillcap_64 abstract view
.subckt gf180mcu_fd_sc_mcu7t5v0__fillcap_64 VDD VNW VPW VSS
.ends

* Black-box entry subcircuit for gf180mcu_fd_sc_mcu7t5v0__clkbuf_16 abstract view
.subckt gf180mcu_fd_sc_mcu7t5v0__clkbuf_16 I Z VDD VNW VPW VSS
.ends

* Black-box entry subcircuit for gf180mcu_fd_sc_mcu7t5v0__or3_1 abstract view
.subckt gf180mcu_fd_sc_mcu7t5v0__or3_1 A1 A2 A3 Z VDD VNW VPW VSS
.ends

* Black-box entry subcircuit for gf180mcu_fd_sc_mcu7t5v0__nor4_1 abstract view
.subckt gf180mcu_fd_sc_mcu7t5v0__nor4_1 A1 A2 A3 A4 ZN VDD VNW VPW VSS
.ends

* Black-box entry subcircuit for gf180mcu_fd_sc_mcu7t5v0__clkinv_2 abstract view
.subckt gf180mcu_fd_sc_mcu7t5v0__clkinv_2 I ZN VDD VNW VPW VSS
.ends

* Black-box entry subcircuit for gf180mcu_fd_sc_mcu7t5v0__dffq_2 abstract view
.subckt gf180mcu_fd_sc_mcu7t5v0__dffq_2 D CLK Q VDD VNW VPW VSS
.ends

* Black-box entry subcircuit for gf180mcu_fd_sc_mcu7t5v0__aoi211_4 abstract view
.subckt gf180mcu_fd_sc_mcu7t5v0__aoi211_4 A1 A2 B C ZN VDD VNW VPW VSS
.ends

* Black-box entry subcircuit for gf180mcu_fd_sc_mcu7t5v0__oai32_1 abstract view
.subckt gf180mcu_fd_sc_mcu7t5v0__oai32_1 A1 A2 A3 B1 B2 ZN VDD VNW VPW VSS
.ends

* Black-box entry subcircuit for gf180mcu_fd_sc_mcu7t5v0__oai21_2 abstract view
.subckt gf180mcu_fd_sc_mcu7t5v0__oai21_2 A1 A2 B ZN VDD VNW VPW VSS
.ends

* Black-box entry subcircuit for gf180mcu_fd_sc_mcu7t5v0__nor4_4 abstract view
.subckt gf180mcu_fd_sc_mcu7t5v0__nor4_4 A1 A2 A3 A4 ZN VDD VNW VPW VSS
.ends

* Black-box entry subcircuit for gf180mcu_fd_sc_mcu7t5v0__tiel abstract view
.subckt gf180mcu_fd_sc_mcu7t5v0__tiel ZN VDD VNW VPW VSS
.ends

* Black-box entry subcircuit for gf180mcu_fd_sc_mcu7t5v0__nor3_2 abstract view
.subckt gf180mcu_fd_sc_mcu7t5v0__nor3_2 A1 A2 A3 ZN VDD VNW VPW VSS
.ends

* Black-box entry subcircuit for gf180mcu_fd_sc_mcu7t5v0__mux2_2 abstract view
.subckt gf180mcu_fd_sc_mcu7t5v0__mux2_2 I0 I1 S Z VDD VNW VPW VSS
.ends

* Black-box entry subcircuit for gf180mcu_fd_sc_mcu7t5v0__oai211_2 abstract view
.subckt gf180mcu_fd_sc_mcu7t5v0__oai211_2 A1 A2 B C ZN VDD VNW VPW VSS
.ends

* Black-box entry subcircuit for gf180mcu_fd_sc_mcu7t5v0__nor2_2 abstract view
.subckt gf180mcu_fd_sc_mcu7t5v0__nor2_2 A1 A2 ZN VDD VNW VPW VSS
.ends

* Black-box entry subcircuit for gf180mcu_fd_sc_mcu7t5v0__nand2_2 abstract view
.subckt gf180mcu_fd_sc_mcu7t5v0__nand2_2 A1 A2 ZN VDD VNW VPW VSS
.ends

* Black-box entry subcircuit for gf180mcu_fd_sc_mcu7t5v0__oai211_4 abstract view
.subckt gf180mcu_fd_sc_mcu7t5v0__oai211_4 A1 A2 B C ZN VDD VNW VPW VSS
.ends

* Black-box entry subcircuit for gf180mcu_fd_sc_mcu7t5v0__aoi221_2 abstract view
.subckt gf180mcu_fd_sc_mcu7t5v0__aoi221_2 A1 A2 B1 B2 C ZN VDD VNW VPW VSS
.ends

* Black-box entry subcircuit for gf180mcu_fd_sc_mcu7t5v0__oai31_1 abstract view
.subckt gf180mcu_fd_sc_mcu7t5v0__oai31_1 A1 A2 A3 B ZN VDD VNW VPW VSS
.ends

* Black-box entry subcircuit for gf180mcu_fd_sc_mcu7t5v0__or4_2 abstract view
.subckt gf180mcu_fd_sc_mcu7t5v0__or4_2 A1 A2 A3 A4 Z VDD VNW VPW VSS
.ends

.subckt DigitalClock clk hours[0] hours[1] hours[2] hours[3] hours[4] hours[5] hours_oeb[0]
+ hours_oeb[1] hours_oeb[2] hours_oeb[3] hours_oeb[4] hours_oeb[5] minutes[0] minutes[1]
+ minutes[2] minutes[3] minutes[4] minutes[5] reset seconds[0] seconds[1] seconds[2]
+ seconds[3] seconds[4] seconds[5] seconds_oeb[0] vdd vss minutes_oeb[5] minutes_oeb[4]
+ minutes_oeb[3] minutes_oeb[2] minutes_oeb[1] minutes_oeb[0] seconds_oeb[5] seconds_oeb[4]
+ seconds_oeb[3] seconds_oeb[2] seconds_oeb[1]
XFILLER_0_7_92 vdd vdd vss vss gf180mcu_fd_sc_mcu7t5v0__fill_1
XFILLER_0_48_37 vdd vdd vss vss gf180mcu_fd_sc_mcu7t5v0__fillcap_16
X_294_ one_second_counter\[18\] _095_ vdd vdd vss vss gf180mcu_fd_sc_mcu7t5v0__clkbuf_1
X_432_ _002_ clknet_2_1__leaf_clk one_second_counter\[2\] vdd vdd vss vss gf180mcu_fd_sc_mcu7t5v0__dffq_1
X_363_ _151_ _148_ _152_ vdd vdd vss vss gf180mcu_fd_sc_mcu7t5v0__nand2_1
X_415_ _184_ _192_ _193_ _164_ _040_ vdd vdd vss vss gf180mcu_fd_sc_mcu7t5v0__aoi211_1
XTAP_TAPCELL_ROW_20_153 vdd vss gf180mcu_fd_sc_mcu7t5v0__filltie
X_346_ net25 _137_ net7 _138_ vdd vdd vss vss gf180mcu_fd_sc_mcu7t5v0__aoi21_2
X_277_ one_second_counter\[13\] _080_ one_second_counter\[14\] _082_ vdd vdd vss vss
+ gf180mcu_fd_sc_mcu7t5v0__aoi21_1
XFILLER_0_37_114 vdd vdd vss vss gf180mcu_fd_sc_mcu7t5v0__fill_2
XFILLER_0_45_38 vdd vdd vss vss gf180mcu_fd_sc_mcu7t5v0__fillcap_4
XFILLER_0_43_106 vdd vdd vss vss gf180mcu_fd_sc_mcu7t5v0__fill_2
X_329_ net13 net12 net11 _122_ vdd vdd vss vss gf180mcu_fd_sc_mcu7t5v0__nand3_1
XFILLER_0_19_72 vdd vdd vss vss gf180mcu_fd_sc_mcu7t5v0__fill_2
XFILLER_0_27_2 vdd vdd vss vss gf180mcu_fd_sc_mcu7t5v0__fillcap_16
XFILLER_0_1_72 vdd vdd vss vss gf180mcu_fd_sc_mcu7t5v0__fillcap_32
XFILLER_0_8_103 vdd vdd vss vss gf180mcu_fd_sc_mcu7t5v0__fill_2
XFILLER_0_8_125 vdd vdd vss vss gf180mcu_fd_sc_mcu7t5v0__fill_1
XANTENNA__365__A2 _127_ vdd vdd vss vss gf180mcu_fd_sc_mcu7t5v0__antenna
XFILLER_0_32_94 vdd vdd vss vss gf180mcu_fd_sc_mcu7t5v0__fill_2
XTAP_TAPCELL_ROW_41_195 vdd vss gf180mcu_fd_sc_mcu7t5v0__filltie
Xoutput7 net7 hours[5] vdd vdd vss vss gf180mcu_fd_sc_mcu7t5v0__buf_8
XTAP_TAPCELL_ROW_18_148 vdd vss gf180mcu_fd_sc_mcu7t5v0__filltie
XFILLER_0_27_61 vdd vdd vss vss gf180mcu_fd_sc_mcu7t5v0__fillcap_8
XFILLER_0_7_82 vdd vdd vss vss gf180mcu_fd_sc_mcu7t5v0__fillcap_8
X_293_ _211_ _091_ _094_ _072_ _017_ vdd vdd vss vss gf180mcu_fd_sc_mcu7t5v0__aoi211_1
X_431_ _001_ clknet_2_0__leaf_clk one_second_counter\[1\] vdd vdd vss vss gf180mcu_fd_sc_mcu7t5v0__dffq_1
XANTENNA__435__CLK clknet_2_0__leaf_clk vdd vdd vss vss gf180mcu_fd_sc_mcu7t5v0__antenna
X_362_ net25 _151_ vdd vdd vss vss gf180mcu_fd_sc_mcu7t5v0__clkinv_1
XTAP_TAPCELL_ROW_14_140 vdd vss gf180mcu_fd_sc_mcu7t5v0__filltie
XFILLER_0_54_70 vdd vdd vss vss gf180mcu_fd_sc_mcu7t5v0__fillcap_32
XANTENNA__458__CLK clknet_2_1__leaf_clk vdd vdd vss vss gf180mcu_fd_sc_mcu7t5v0__antenna
X_414_ _183_ _188_ _185_ _193_ vdd vdd vss vss gf180mcu_fd_sc_mcu7t5v0__aoi21_1
XANTENNA__410__A1 net1 vdd vdd vss vss gf180mcu_fd_sc_mcu7t5v0__antenna
X_276_ _063_ _081_ _013_ vdd vdd vss vss gf180mcu_fd_sc_mcu7t5v0__nor2_1
X_345_ _135_ _136_ _137_ vdd vdd vss vss gf180mcu_fd_sc_mcu7t5v0__nand2_1
XFILLER_0_52_107 vdd vdd vss vss gf180mcu_fd_sc_mcu7t5v0__fill_2
XPHY_EDGE_ROW_21_Right_21 vdd vss gf180mcu_fd_sc_mcu7t5v0__endcap
XPHY_EDGE_ROW_12_Right_12 vdd vss gf180mcu_fd_sc_mcu7t5v0__endcap
X_328_ _120_ _121_ vdd vdd vss vss gf180mcu_fd_sc_mcu7t5v0__inv_1
XPHY_EDGE_ROW_30_Right_30 vdd vss gf180mcu_fd_sc_mcu7t5v0__endcap
XFILLER_0_29_18 vdd vdd vss vss gf180mcu_fd_sc_mcu7t5v0__fillcap_4
X_259_ one_second_counter\[6\] one_second_counter\[7\] one_second_counter\[8\] _059_
+ _069_ vdd vdd vss vss gf180mcu_fd_sc_mcu7t5v0__nand4_1
XFILLER_0_35_72 vdd vdd vss vss gf180mcu_fd_sc_mcu7t5v0__fill_2
XFILLER_0_35_50 vdd vdd vss vss gf180mcu_fd_sc_mcu7t5v0__fill_2
XFILLER_0_34_107 vdd vdd vss vss gf180mcu_fd_sc_mcu7t5v0__fillcap_16
XFILLER_0_19_115 vdd vdd vss vss gf180mcu_fd_sc_mcu7t5v0__fill_2
XFILLER_0_19_84 vdd vdd vss vss gf180mcu_fd_sc_mcu7t5v0__fill_2
XFILLER_0_10_31 vdd vdd vss vss gf180mcu_fd_sc_mcu7t5v0__fill_2
XFILLER_0_25_107 vdd vdd vss vss gf180mcu_fd_sc_mcu7t5v0__fillcap_8
XFILLER_0_6_18 vdd vdd vss vss gf180mcu_fd_sc_mcu7t5v0__fill_2
XTAP_TAPCELL_ROW_35_182 vdd vss gf180mcu_fd_sc_mcu7t5v0__filltie
XPHY_EDGE_ROW_6_Right_6 vdd vss gf180mcu_fd_sc_mcu7t5v0__endcap
XFILLER_0_8_115 vdd vdd vss vss gf180mcu_fd_sc_mcu7t5v0__fillcap_4
XFILLER_0_37_18 vdd vdd vss vss gf180mcu_fd_sc_mcu7t5v0__fillcap_4
Xoutput10 net10 minutes[2] vdd vdd vss vss gf180mcu_fd_sc_mcu7t5v0__buf_8
XFILLER_0_9_2 vdd vdd vss vss gf180mcu_fd_sc_mcu7t5v0__fillcap_16
Xoutput8 net8 minutes[0] vdd vdd vss vss gf180mcu_fd_sc_mcu7t5v0__buf_8
XTAP_TAPCELL_ROW_18_149 vdd vss gf180mcu_fd_sc_mcu7t5v0__filltie
X_292_ _093_ _094_ vdd vdd vss vss gf180mcu_fd_sc_mcu7t5v0__clkbuf_1
X_430_ _000_ clknet_2_0__leaf_clk one_second_counter\[0\] vdd vdd vss vss gf180mcu_fd_sc_mcu7t5v0__dffq_1
X_361_ _133_ _149_ _150_ _143_ _029_ vdd vdd vss vss gf180mcu_fd_sc_mcu7t5v0__aoi211_1
XFILLER_0_13_86 vdd vdd vss vss gf180mcu_fd_sc_mcu7t5v0__fill_2
XTAP_TAPCELL_ROW_14_141 vdd vss gf180mcu_fd_sc_mcu7t5v0__filltie
XFILLER_0_49_146 vdd vdd vss vss gf180mcu_fd_sc_mcu7t5v0__fillcap_4
XFILLER_0_49_113 vdd vdd vss vss gf180mcu_fd_sc_mcu7t5v0__fill_1
XPHY_EDGE_ROW_19_Left_74 vdd vss gf180mcu_fd_sc_mcu7t5v0__endcap
X_413_ _120_ _191_ _192_ vdd vdd vss vss gf180mcu_fd_sc_mcu7t5v0__nand2_1
X_275_ one_second_counter\[13\] _080_ _081_ vdd vdd vss vss gf180mcu_fd_sc_mcu7t5v0__xnor2_1
X_344_ net4 net26 net2 _136_ vdd vdd vss vss gf180mcu_fd_sc_mcu7t5v0__nand3_2
XFILLER_0_52_119 vdd vdd vss vss gf180mcu_fd_sc_mcu7t5v0__fill_1
XPHY_EDGE_ROW_4_Left_59 vdd vss gf180mcu_fd_sc_mcu7t5v0__endcap
X_327_ net19 net20 net17 _120_ vdd vdd vss vss gf180mcu_fd_sc_mcu7t5v0__nand3_1
XFILLER_0_51_72 vdd vdd vss vss gf180mcu_fd_sc_mcu7t5v0__fillcap_16
XANTENNA__448__CLK clknet_2_2__leaf_clk vdd vdd vss vss gf180mcu_fd_sc_mcu7t5v0__antenna
X_258_ one_second_counter\[9\] _068_ vdd vdd vss vss gf180mcu_fd_sc_mcu7t5v0__clkinv_1
XFILLER_0_9_18 vdd vdd vss vss gf180mcu_fd_sc_mcu7t5v0__fillcap_8
XFILLER_0_21_64 vdd vdd vss vss gf180mcu_fd_sc_mcu7t5v0__fillcap_4
XANTENNA__312__C _072_ vdd vdd vss vss gf180mcu_fd_sc_mcu7t5v0__antenna
XFILLER_0_21_111 vdd vdd vss vss gf180mcu_fd_sc_mcu7t5v0__fillcap_16
XPHY_EDGE_ROW_7_Left_62 vdd vss gf180mcu_fd_sc_mcu7t5v0__endcap
XFILLER_0_32_2 vdd vdd vss vss gf180mcu_fd_sc_mcu7t5v0__fillcap_16
XFILLER_0_16_20 vdd vdd vss vss gf180mcu_fd_sc_mcu7t5v0__fillcap_4
XFILLER_0_16_31 vdd vdd vss vss gf180mcu_fd_sc_mcu7t5v0__fillcap_4
XTAP_TAPCELL_ROW_35_183 vdd vss gf180mcu_fd_sc_mcu7t5v0__filltie
XPHY_EDGE_ROW_33_Left_88 vdd vss gf180mcu_fd_sc_mcu7t5v0__endcap
Xoutput11 net11 minutes[3] vdd vdd vss vss gf180mcu_fd_sc_mcu7t5v0__buf_8
Xoutput9 net9 minutes[1] vdd vdd vss vss gf180mcu_fd_sc_mcu7t5v0__buf_8
X_291_ _087_ _083_ _092_ _084_ _093_ vdd vdd vss vss gf180mcu_fd_sc_mcu7t5v0__nor4_2
XFILLER_0_7_40 vdd vdd vss vss gf180mcu_fd_sc_mcu7t5v0__fill_1
X_360_ net5 _127_ _150_ vdd vdd vss vss gf180mcu_fd_sc_mcu7t5v0__nor2_1
X_412_ _185_ _188_ _191_ vdd vdd vss vss gf180mcu_fd_sc_mcu7t5v0__nand2_1
XPHY_EDGE_ROW_36_Left_91 vdd vss gf180mcu_fd_sc_mcu7t5v0__endcap
X_274_ _078_ _079_ _080_ _012_ vdd vdd vss vss gf180mcu_fd_sc_mcu7t5v0__nor3_1
X_343_ net5 _135_ vdd vdd vss vss gf180mcu_fd_sc_mcu7t5v0__clkinv_1
XTAP_TAPCELL_ROW_11_134 vdd vss gf180mcu_fd_sc_mcu7t5v0__filltie
XFILLER_0_49_72 vdd vdd vss vss gf180mcu_fd_sc_mcu7t5v0__fillcap_16
XFILLER_0_24_31 vdd vdd vss vss gf180mcu_fd_sc_mcu7t5v0__fill_2
XPHY_EDGE_ROW_20_Left_75 vdd vss gf180mcu_fd_sc_mcu7t5v0__endcap
XFILLER_0_45_150 vdd vdd vss vss gf180mcu_fd_sc_mcu7t5v0__fill_2
XFILLER_0_37_139 vdd vdd vss vss gf180mcu_fd_sc_mcu7t5v0__fill_1
XANTENNA_clkbuf_2_2__f_clk_I clknet_0_clk vdd vdd vss vss gf180mcu_fd_sc_mcu7t5v0__antenna
XFILLER_0_51_142 vdd vdd vss vss gf180mcu_fd_sc_mcu7t5v0__fillcap_4
X_326_ net15 net22 _119_ vdd vdd vss vss gf180mcu_fd_sc_mcu7t5v0__and2_2
XFILLER_0_35_52 vdd vdd vss vss gf180mcu_fd_sc_mcu7t5v0__fill_1
X_257_ _063_ _067_ _008_ vdd vdd vss vss gf180mcu_fd_sc_mcu7t5v0__nor2_1
XFILLER_0_51_62 vdd vdd vss vss gf180mcu_fd_sc_mcu7t5v0__fillcap_8
XFILLER_0_19_139 vdd vdd vss vss gf180mcu_fd_sc_mcu7t5v0__fill_1
X_309_ one_second_counter\[21\] _101_ _099_ _106_ vdd vdd vss vss gf180mcu_fd_sc_mcu7t5v0__nand3_1
XFILLER_0_33_142 vdd vdd vss vss gf180mcu_fd_sc_mcu7t5v0__fillcap_4
XFILLER_0_30_101 vdd vdd vss vss gf180mcu_fd_sc_mcu7t5v0__fillcap_4
XPHY_EDGE_ROW_51_Left_106 vdd vss gf180mcu_fd_sc_mcu7t5v0__endcap
XANTENNA__438__CLK clknet_2_0__leaf_clk vdd vdd vss vss gf180mcu_fd_sc_mcu7t5v0__antenna
XFILLER_0_32_20 vdd vdd vss vss gf180mcu_fd_sc_mcu7t5v0__fill_1
XTAP_TAPCELL_ROW_29_170 vdd vss gf180mcu_fd_sc_mcu7t5v0__filltie
XFILLER_0_16_87 vdd vdd vss vss gf180mcu_fd_sc_mcu7t5v0__fill_2
Xoutput12 net12 minutes[4] vdd vdd vss vss gf180mcu_fd_sc_mcu7t5v0__buf_8
XFILLER_0_25_2 vdd vdd vss vss gf180mcu_fd_sc_mcu7t5v0__fillcap_8
XTAP_TAPCELL_ROW_49_210 vdd vss gf180mcu_fd_sc_mcu7t5v0__filltie
XFILLER_0_27_20 vdd vdd vss vss gf180mcu_fd_sc_mcu7t5v0__fill_1
XTAP_TAPCELL_ROW_32_176 vdd vss gf180mcu_fd_sc_mcu7t5v0__filltie
X_290_ one_second_counter\[16\] one_second_counter\[17\] _092_ vdd vdd vss vss gf180mcu_fd_sc_mcu7t5v0__nand2_1
XFILLER_0_13_33 vdd vdd vss vss gf180mcu_fd_sc_mcu7t5v0__fill_2
XTAP_TAPCELL_ROW_52_216 vdd vss gf180mcu_fd_sc_mcu7t5v0__filltie
XFILLER_0_1_112 vdd vdd vss vss gf180mcu_fd_sc_mcu7t5v0__fill_2
X_411_ _184_ _188_ _189_ _190_ _039_ vdd vdd vss vss gf180mcu_fd_sc_mcu7t5v0__aoi211_1
X_273_ one_second_counter\[12\] _076_ _080_ vdd vdd vss vss gf180mcu_fd_sc_mcu7t5v0__and2_1
XTAP_TAPCELL_ROW_5_122 vdd vss gf180mcu_fd_sc_mcu7t5v0__filltie
X_342_ net26 _115_ _134_ vdd vdd vss vss gf180mcu_fd_sc_mcu7t5v0__nand2_1
XTAP_TAPCELL_ROW_11_135 vdd vss gf180mcu_fd_sc_mcu7t5v0__filltie
XFILLER_0_46_107 vdd vdd vss vss gf180mcu_fd_sc_mcu7t5v0__fillcap_4
XFILLER_0_40_53 vdd vdd vss vss gf180mcu_fd_sc_mcu7t5v0__fill_2
XFILLER_0_40_31 vdd vdd vss vss gf180mcu_fd_sc_mcu7t5v0__fill_2
XANTENNA__471__CLK clknet_2_3__leaf_clk vdd vdd vss vss gf180mcu_fd_sc_mcu7t5v0__antenna
XFILLER_0_37_118 vdd vdd vss vss gf180mcu_fd_sc_mcu7t5v0__fill_1
X_325_ _044_ _118_ vdd vdd vss vss gf180mcu_fd_sc_mcu7t5v0__clkbuf_2
XFILLER_0_19_76 vdd vdd vss vss gf180mcu_fd_sc_mcu7t5v0__fillcap_8
X_256_ one_second_counter\[8\] _066_ _067_ vdd vdd vss vss gf180mcu_fd_sc_mcu7t5v0__xor2_1
XFILLER_0_18_151 vdd vdd vss vss gf180mcu_fd_sc_mcu7t5v0__fill_1
XFILLER_0_46_74 vdd vdd vss vss gf180mcu_fd_sc_mcu7t5v0__fillcap_16
X_308_ one_second_counter\[22\] _105_ vdd vdd vss vss gf180mcu_fd_sc_mcu7t5v0__clkinv_1
X_239_ one_second_counter\[0\] one_second_counter\[1\] one_second_counter\[3\] one_second_counter\[2\]
+ _055_ vdd vdd vss vss gf180mcu_fd_sc_mcu7t5v0__and4_1
XFILLER_0_32_98 vdd vdd vss vss gf180mcu_fd_sc_mcu7t5v0__fill_1
XTAP_TAPCELL_ROW_29_171 vdd vss gf180mcu_fd_sc_mcu7t5v0__filltie
XFILLER_0_21_135 vdd vdd vss vss gf180mcu_fd_sc_mcu7t5v0__fillcap_4
XFILLER_0_8_107 vdd vdd vss vss gf180mcu_fd_sc_mcu7t5v0__fillcap_8
XFILLER_0_12_102 vdd vdd vss vss gf180mcu_fd_sc_mcu7t5v0__fill_2
XFILLER_0_12_113 vdd vdd vss vss gf180mcu_fd_sc_mcu7t5v0__fill_2
XFILLER_0_16_99 vdd vdd vss vss gf180mcu_fd_sc_mcu7t5v0__fillcap_4
Xoutput13 net13 minutes[5] vdd vdd vss vss gf180mcu_fd_sc_mcu7t5v0__buf_8
XPHY_EDGE_ROW_28_Right_28 vdd vss gf180mcu_fd_sc_mcu7t5v0__endcap
XPHY_EDGE_ROW_19_Right_19 vdd vss gf180mcu_fd_sc_mcu7t5v0__endcap
XTAP_TAPCELL_ROW_49_211 vdd vss gf180mcu_fd_sc_mcu7t5v0__filltie
XPHY_EDGE_ROW_46_Right_46 vdd vss gf180mcu_fd_sc_mcu7t5v0__endcap
XFILLER_0_43_20 vdd vdd vss vss gf180mcu_fd_sc_mcu7t5v0__fill_1
XPHY_EDGE_ROW_37_Right_37 vdd vss gf180mcu_fd_sc_mcu7t5v0__endcap
XTAP_TAPCELL_ROW_32_177 vdd vss gf180mcu_fd_sc_mcu7t5v0__filltie
XFILLER_0_7_2 vdd vdd vss vss gf180mcu_fd_sc_mcu7t5v0__fill_1
XANTENNA_input1_I reset vdd vdd vss vss gf180mcu_fd_sc_mcu7t5v0__antenna
XTAP_TAPCELL_ROW_52_217 vdd vss gf180mcu_fd_sc_mcu7t5v0__filltie
XFILLER_0_38_31 vdd vdd vss vss gf180mcu_fd_sc_mcu7t5v0__fill_2
XFILLER_0_1_146 vdd vdd vss vss gf180mcu_fd_sc_mcu7t5v0__fill_2
XFILLER_0_13_78 vdd vdd vss vss gf180mcu_fd_sc_mcu7t5v0__fillcap_8
X_410_ net1 _166_ _190_ vdd vdd vss vss gf180mcu_fd_sc_mcu7t5v0__or2_1
X_341_ _132_ _133_ vdd vdd vss vss gf180mcu_fd_sc_mcu7t5v0__buf_1
X_272_ one_second_counter\[12\] _076_ _079_ vdd vdd vss vss gf180mcu_fd_sc_mcu7t5v0__nor2_1
XTAP_TAPCELL_ROW_5_123 vdd vss gf180mcu_fd_sc_mcu7t5v0__filltie
XFILLER_0_51_133 vdd vdd vss vss gf180mcu_fd_sc_mcu7t5v0__fillcap_4
XFILLER_0_51_111 vdd vdd vss vss gf180mcu_fd_sc_mcu7t5v0__fill_1
X_324_ _206_ _117_ vdd vdd vss vss gf180mcu_fd_sc_mcu7t5v0__clkbuf_2
X_255_ one_second_counter\[6\] one_second_counter\[7\] _055_ _058_ _066_ vdd vdd vss
+ vss gf180mcu_fd_sc_mcu7t5v0__nand4_4
XFILLER_0_51_42 vdd vdd vss vss gf180mcu_fd_sc_mcu7t5v0__fill_2
XFILLER_0_48_2 vdd vdd vss vss gf180mcu_fd_sc_mcu7t5v0__fillcap_32
XFILLER_0_35_76 vdd vdd vss vss gf180mcu_fd_sc_mcu7t5v0__fillcap_32
XFILLER_0_27_130 vdd vdd vss vss gf180mcu_fd_sc_mcu7t5v0__fillcap_8
XFILLER_0_19_119 vdd vdd vss vss gf180mcu_fd_sc_mcu7t5v0__fillcap_16
XFILLER_0_33_122 vdd vdd vss vss gf180mcu_fd_sc_mcu7t5v0__fill_2
XFILLER_0_46_31 vdd vdd vss vss gf180mcu_fd_sc_mcu7t5v0__fill_2
X_307_ _062_ _103_ _104_ _021_ vdd vdd vss vss gf180mcu_fd_sc_mcu7t5v0__nor3_1
XFILLER_0_24_100 vdd vdd vss vss gf180mcu_fd_sc_mcu7t5v0__fillcap_4
XFILLER_0_21_34 vdd vdd vss vss gf180mcu_fd_sc_mcu7t5v0__fillcap_4
X_238_ one_second_counter\[3\] _052_ _054_ vdd vdd vss vss gf180mcu_fd_sc_mcu7t5v0__nor2_1
XFILLER_0_1_66 vdd vdd vss vss gf180mcu_fd_sc_mcu7t5v0__fillcap_4
XANTENNA__461__CLK clknet_2_1__leaf_clk vdd vdd vss vss gf180mcu_fd_sc_mcu7t5v0__antenna
XFILLER_0_8_119 vdd vdd vss vss gf180mcu_fd_sc_mcu7t5v0__fill_2
Xoutput14 net14 seconds[0] vdd vdd vss vss gf180mcu_fd_sc_mcu7t5v0__buf_8
XTAP_TAPCELL_ROW_26_164 vdd vss gf180mcu_fd_sc_mcu7t5v0__filltie
XFILLER_0_7_32 vdd vdd vss vss gf180mcu_fd_sc_mcu7t5v0__fill_2
XFILLER_0_30_2 vdd vdd vss vss gf180mcu_fd_sc_mcu7t5v0__fillcap_16
XPHY_EDGE_ROW_48_Left_103 vdd vss gf180mcu_fd_sc_mcu7t5v0__endcap
XTAP_TAPCELL_ROW_46_204 vdd vss gf180mcu_fd_sc_mcu7t5v0__filltie
XFILLER_0_39_150 vdd vdd vss vss gf180mcu_fd_sc_mcu7t5v0__fill_2
X_340_ _124_ _131_ _132_ vdd vdd vss vss gf180mcu_fd_sc_mcu7t5v0__and2_1
X_271_ _048_ _078_ vdd vdd vss vss gf180mcu_fd_sc_mcu7t5v0__buf_1
XFILLER_0_24_45 vdd vdd vss vss gf180mcu_fd_sc_mcu7t5v0__fill_2
X_469_ _039_ clknet_2_3__leaf_clk net15 vdd vdd vss vss gf180mcu_fd_sc_mcu7t5v0__dffq_1
XTAP_TAPCELL_ROW_2_116 vdd vss gf180mcu_fd_sc_mcu7t5v0__filltie
X_323_ net25 net5 _115_ net7 _116_ vdd vdd vss vss gf180mcu_fd_sc_mcu7t5v0__aoi211_1
X_254_ _063_ _065_ _007_ vdd vdd vss vss gf180mcu_fd_sc_mcu7t5v0__nor2_1
XFILLER_0_51_10 vdd vdd vss vss gf180mcu_fd_sc_mcu7t5v0__fill_2
XFILLER_0_27_142 vdd vdd vss vss gf180mcu_fd_sc_mcu7t5v0__fill_2
XPHY_EDGE_ROW_24_Left_79 vdd vss gf180mcu_fd_sc_mcu7t5v0__endcap
XFILLER_0_10_69 vdd vdd vss vss gf180mcu_fd_sc_mcu7t5v0__fill_1
XFILLER_0_33_134 vdd vdd vss vss gf180mcu_fd_sc_mcu7t5v0__fillcap_4
X_306_ one_second_counter\[21\] _101_ _099_ _104_ vdd vdd vss vss gf180mcu_fd_sc_mcu7t5v0__and3_1
XFILLER_0_21_68 vdd vdd vss vss gf180mcu_fd_sc_mcu7t5v0__fill_2
X_237_ _051_ _052_ _053_ _002_ vdd vdd vss vss gf180mcu_fd_sc_mcu7t5v0__nor3_1
XFILLER_0_46_98 vdd vdd vss vss gf180mcu_fd_sc_mcu7t5v0__fillcap_4
XANTENNA__263__C _072_ vdd vdd vss vss gf180mcu_fd_sc_mcu7t5v0__antenna
XFILLER_0_16_24 vdd vdd vss vss gf180mcu_fd_sc_mcu7t5v0__fill_2
XPHY_EDGE_ROW_27_Left_82 vdd vss gf180mcu_fd_sc_mcu7t5v0__endcap
XPHY_EDGE_ROW_11_Left_66 vdd vss gf180mcu_fd_sc_mcu7t5v0__endcap
XFILLER_0_12_104 vdd vdd vss vss gf180mcu_fd_sc_mcu7t5v0__fill_1
Xoutput15 net15 seconds[1] vdd vdd vss vss gf180mcu_fd_sc_mcu7t5v0__buf_8
XTAP_TAPCELL_ROW_26_165 vdd vss gf180mcu_fd_sc_mcu7t5v0__filltie
XPHY_EDGE_ROW_1_Right_1 vdd vss gf180mcu_fd_sc_mcu7t5v0__endcap
XFILLER_0_7_142 vdd vdd vss vss gf180mcu_fd_sc_mcu7t5v0__fill_2
XANTENNA__425__A1 _114_ vdd vdd vss vss gf180mcu_fd_sc_mcu7t5v0__antenna
XANTENNA__451__CLK clknet_2_2__leaf_clk vdd vdd vss vss gf180mcu_fd_sc_mcu7t5v0__antenna
XFILLER_0_27_45 vdd vdd vss vss gf180mcu_fd_sc_mcu7t5v0__fillcap_8
XFILLER_0_4_101 vdd vdd vss vss gf180mcu_fd_sc_mcu7t5v0__fillcap_4
XFILLER_0_23_2 vdd vdd vss vss gf180mcu_fd_sc_mcu7t5v0__fillcap_8
XFILLER_0_7_99 vdd vdd vss vss gf180mcu_fd_sc_mcu7t5v0__fillcap_16
XTAP_TAPCELL_ROW_46_205 vdd vss gf180mcu_fd_sc_mcu7t5v0__filltie
XFILLER_0_1_104 vdd vdd vss vss gf180mcu_fd_sc_mcu7t5v0__fillcap_8
X_270_ _051_ _076_ _077_ _011_ vdd vdd vss vss gf180mcu_fd_sc_mcu7t5v0__nor3_1
X_468_ _038_ clknet_2_3__leaf_clk net14 vdd vdd vss vss gf180mcu_fd_sc_mcu7t5v0__dffq_1
X_399_ net13 _181_ vdd vdd vss vss gf180mcu_fd_sc_mcu7t5v0__clkinv_1
XFILLER_0_4_34 vdd vdd vss vss gf180mcu_fd_sc_mcu7t5v0__fill_1
XTAP_TAPCELL_ROW_2_117 vdd vss gf180mcu_fd_sc_mcu7t5v0__filltie
XFILLER_0_45_121 vdd vdd vss vss gf180mcu_fd_sc_mcu7t5v0__fill_2
X_322_ net2 _115_ vdd vdd vss vss gf180mcu_fd_sc_mcu7t5v0__clkbuf_1
XFILLER_0_51_146 vdd vdd vss vss gf180mcu_fd_sc_mcu7t5v0__fill_2
XFILLER_0_51_102 vdd vdd vss vss gf180mcu_fd_sc_mcu7t5v0__fill_2
XFILLER_0_51_88 vdd vdd vss vss gf180mcu_fd_sc_mcu7t5v0__fillcap_4
XFILLER_0_36_121 vdd vdd vss vss gf180mcu_fd_sc_mcu7t5v0__fill_2
XFILLER_0_35_67 vdd vdd vss vss gf180mcu_fd_sc_mcu7t5v0__fill_2
XFILLER_0_35_34 vdd vdd vss vss gf180mcu_fd_sc_mcu7t5v0__fillcap_16
XFILLER_0_27_110 vdd vdd vss vss gf180mcu_fd_sc_mcu7t5v0__fill_2
XFILLER_0_19_68 vdd vdd vss vss gf180mcu_fd_sc_mcu7t5v0__fill_2
XFILLER_0_19_46 vdd vdd vss vss gf180mcu_fd_sc_mcu7t5v0__fillcap_8
XFILLER_0_10_37 vdd vdd vss vss gf180mcu_fd_sc_mcu7t5v0__fillcap_32
X_253_ one_second_counter\[7\] _064_ _065_ vdd vdd vss vss gf180mcu_fd_sc_mcu7t5v0__xor2_1
XPHY_EDGE_ROW_41_Left_96 vdd vss gf180mcu_fd_sc_mcu7t5v0__endcap
XFILLER_0_33_146 vdd vdd vss vss gf180mcu_fd_sc_mcu7t5v0__fill_2
X_305_ _101_ _099_ one_second_counter\[21\] _103_ vdd vdd vss vss gf180mcu_fd_sc_mcu7t5v0__aoi21_1
X_236_ _205_ one_second_counter\[1\] one_second_counter\[2\] _053_ vdd vdd vss vss
+ gf180mcu_fd_sc_mcu7t5v0__aoi21_1
XFILLER_0_53_2 vdd vdd vss vss gf180mcu_fd_sc_mcu7t5v0__fillcap_64
XFILLER_0_15_135 vdd vdd vss vss gf180mcu_fd_sc_mcu7t5v0__fill_2
XFILLER_0_21_127 vdd vdd vss vss gf180mcu_fd_sc_mcu7t5v0__fill_2
X_219_ one_second_counter\[15\] one_second_counter\[14\] one_second_counter\[13\]
+ one_second_counter\[12\] _209_ vdd vdd vss vss gf180mcu_fd_sc_mcu7t5v0__and4_1
Xoutput16 net16 seconds[2] vdd vdd vss vss gf180mcu_fd_sc_mcu7t5v0__buf_8
Xclkbuf_0_clk clk clknet_0_clk vdd vdd vss vss gf180mcu_fd_sc_mcu7t5v0__clkbuf_16
XPHY_EDGE_ROW_24_Right_24 vdd vss gf180mcu_fd_sc_mcu7t5v0__endcap
XTAP_TAPCELL_ROW_23_158 vdd vss gf180mcu_fd_sc_mcu7t5v0__filltie
XFILLER_0_7_78 vdd vdd vss vss gf180mcu_fd_sc_mcu7t5v0__fill_2
XANTENNA__361__A1 _133_ vdd vdd vss vss gf180mcu_fd_sc_mcu7t5v0__antenna
XPHY_EDGE_ROW_15_Right_15 vdd vss gf180mcu_fd_sc_mcu7t5v0__endcap
XFILLER_0_16_2 vdd vdd vss vss gf180mcu_fd_sc_mcu7t5v0__fillcap_16
XPHY_EDGE_ROW_51_Right_51 vdd vss gf180mcu_fd_sc_mcu7t5v0__endcap
XPHY_EDGE_ROW_42_Right_42 vdd vss gf180mcu_fd_sc_mcu7t5v0__endcap
XPHY_EDGE_ROW_33_Right_33 vdd vss gf180mcu_fd_sc_mcu7t5v0__endcap
XANTENNA__352__A1 _133_ vdd vdd vss vss gf180mcu_fd_sc_mcu7t5v0__antenna
XFILLER_0_13_37 vdd vdd vss vss gf180mcu_fd_sc_mcu7t5v0__fillcap_4
XANTENNA__441__CLK clknet_2_1__leaf_clk vdd vdd vss vss gf180mcu_fd_sc_mcu7t5v0__antenna
XFILLER_0_5_2 vdd vdd vss vss gf180mcu_fd_sc_mcu7t5v0__fillcap_64
XFILLER_0_49_66 vdd vdd vss vss gf180mcu_fd_sc_mcu7t5v0__fillcap_4
XFILLER_0_49_88 vdd vdd vss vss gf180mcu_fd_sc_mcu7t5v0__fill_2
XFILLER_0_40_68 vdd vdd vss vss gf180mcu_fd_sc_mcu7t5v0__fillcap_4
X_398_ _180_ _036_ vdd vdd vss vss gf180mcu_fd_sc_mcu7t5v0__clkbuf_1
X_467_ _037_ clknet_2_3__leaf_clk net13 vdd vdd vss vss gf180mcu_fd_sc_mcu7t5v0__dffq_1
XFILLER_0_24_47 vdd vdd vss vss gf180mcu_fd_sc_mcu7t5v0__fill_1
XANTENNA__464__CLK clknet_2_1__leaf_clk vdd vdd vss vss gf180mcu_fd_sc_mcu7t5v0__antenna
XFILLER_0_14_91 vdd vdd vss vss gf180mcu_fd_sc_mcu7t5v0__fillcap_8
XFILLER_0_51_12 vdd vdd vss vss gf180mcu_fd_sc_mcu7t5v0__fill_1
X_252_ one_second_counter\[6\] _059_ _064_ vdd vdd vss vss gf180mcu_fd_sc_mcu7t5v0__nand2_1
X_321_ _113_ _114_ vdd vdd vss vss gf180mcu_fd_sc_mcu7t5v0__inv_1
XFILLER_0_42_103 vdd vdd vss vss gf180mcu_fd_sc_mcu7t5v0__fill_2
XFILLER_0_18_100 vdd vdd vss vss gf180mcu_fd_sc_mcu7t5v0__fillcap_4
X_304_ _089_ _102_ _020_ vdd vdd vss vss gf180mcu_fd_sc_mcu7t5v0__nor2_1
X_235_ _205_ one_second_counter\[1\] one_second_counter\[2\] _052_ vdd vdd vss vss
+ gf180mcu_fd_sc_mcu7t5v0__and3_1
XFILLER_0_21_139 vdd vdd vss vss gf180mcu_fd_sc_mcu7t5v0__fill_1
X_218_ one_second_counter\[7\] one_second_counter\[9\] one_second_counter\[10\] _208_
+ vdd vdd vss vss gf180mcu_fd_sc_mcu7t5v0__or3_1
XFILLER_0_12_117 vdd vdd vss vss gf180mcu_fd_sc_mcu7t5v0__fill_2
Xoutput17 net17 seconds[3] vdd vdd vss vss gf180mcu_fd_sc_mcu7t5v0__buf_8
XFILLER_0_22_80 vdd vdd vss vss gf180mcu_fd_sc_mcu7t5v0__fillcap_16
XFILLER_0_27_69 vdd vdd vss vss gf180mcu_fd_sc_mcu7t5v0__fill_1
XTAP_TAPCELL_ROW_40_192 vdd vss gf180mcu_fd_sc_mcu7t5v0__filltie
XFILLER_0_33_90 vdd vdd vss vss gf180mcu_fd_sc_mcu7t5v0__fill_2
XTAP_TAPCELL_ROW_23_159 vdd vss gf180mcu_fd_sc_mcu7t5v0__filltie
XFILLER_0_49_109 vdd vdd vss vss gf180mcu_fd_sc_mcu7t5v0__fillcap_4
XANTENNA__320__I net1 vdd vdd vss vss gf180mcu_fd_sc_mcu7t5v0__antenna
X_466_ _036_ clknet_2_3__leaf_clk net12 vdd vdd vss vss gf180mcu_fd_sc_mcu7t5v0__dffq_1
X_397_ _113_ _132_ _178_ _179_ _180_ vdd vdd vss vss gf180mcu_fd_sc_mcu7t5v0__nor4_1