*SPEF "ieee 1481-1999"
*DESIGN "DigitalClock"
*DATE "11:11:11 Fri 11 11, 1111"
*VENDOR "OpenRCX"
*PROGRAM "Parallel Extraction"
*VERSION "1.0"
*DESIGN_FLOW "NAME_SCOPE LOCAL" "PIN_CAP NONE"
*DIVIDER /
*DELIMITER :
*BUS_DELIMITER []
*T_UNIT 1 NS
*C_UNIT 1 PF
*R_UNIT 1 OHM
*L_UNIT 1 HENRY

*NAME_MAP
*1 clk
*2 hours[0]
*3 hours[1]
*4 hours[2]
*5 hours[3]
*6 hours[4]
*7 hours[5]
*8 net48
*9 net49
*10 net50
*11 net51
*12 net52
*13 net53
*14 minutes[0]
*15 minutes[1]
*16 minutes[2]
*17 minutes[3]
*18 minutes[4]
*19 minutes[5]
*20 net54
*21 net55
*22 net56
*23 net57
*24 net58
*25 net59
*26 reset
*27 seconds[0]
*28 seconds[1]
*29 seconds[2]
*30 seconds[3]
*31 seconds[4]
*32 seconds[5]
*33 net60
*34 net61
*35 net62
*36 net63
*37 net64
*38 net65
*41 _000_
*42 _001_
*43 _002_
*44 _003_
*45 _004_
*46 _005_
*47 _006_
*48 _007_
*49 _008_
*50 _009_
*51 _010_
*52 _011_
*53 _012_
*54 _013_
*55 _014_
*56 _015_
*57 _016_
*58 _017_
*59 _018_
*60 _019_
*61 _020_
*62 _021_
*63 _022_
*64 _023_
*65 _024_
*66 _025_
*67 _026_
*68 _027_
*69 _028_
*70 _029_
*71 _030_
*72 _031_
*73 _032_
*74 _033_
*75 _034_
*76 _035_
*77 _036_
*78 _037_
*79 _038_
*80 _039_
*81 _040_
*82 _041_
*83 _042_
*84 _043_
*85 _044_
*86 _045_
*87 _046_
*88 _047_
*89 _048_
*90 _049_
*91 _050_
*92 _051_
*93 _052_
*94 _053_
*95 _054_
*96 _055_
*97 _056_
*98 _057_
*99 _058_
*100 _059_
*101 _060_
*102 _061_
*103 _062_
*104 _063_
*105 _064_
*106 _065_
*107 _066_
*108 _067_
*109 _068_
*110 _069_
*111 _070_
*112 _071_
*113 _072_
*114 _073_
*115 _074_
*116 _075_
*117 _076_
*118 _077_
*119 _078_
*120 _079_
*121 _080_
*122 _081_
*123 _082_
*124 _083_
*125 _084_
*126 _085_
*127 _086_
*128 _087_
*129 _088_
*130 _089_
*131 _090_
*132 _091_
*133 _092_
*134 _093_
*135 _094_
*136 _095_
*137 _096_
*138 _097_
*139 _098_
*140 _099_
*141 _100_
*142 _101_
*143 _102_
*144 _103_
*145 _104_
*146 _105_
*147 _106_
*148 _107_
*149 _108_
*150 _109_
*151 _110_
*152 _111_
*153 _112_
*154 _113_
*155 _114_
*156 _115_
*157 _116_
*158 _117_
*159 _118_
*160 _119_
*161 _120_
*162 _121_
*163 _122_
*164 _123_
*165 _124_
*166 _125_
*167 _126_
*168 _127_
*169 _128_
*170 _129_
*171 _130_
*172 _131_
*173 _132_
*174 _133_
*175 _134_
*176 _135_
*177 _136_
*178 _137_
*179 _138_
*180 _139_
*181 _140_
*182 _141_
*183 _142_
*184 _143_
*185 _144_
*186 _145_
*187 _146_
*188 _147_
*189 _148_
*190 _149_
*191 _150_
*192 _151_
*193 _152_
*194 _153_
*195 _154_
*196 _155_
*197 _156_
*198 _157_
*199 _158_
*200 _159_
*201 _160_
*202 _161_
*203 _162_
*204 _163_
*205 _164_
*206 _165_
*207 _166_
*208 _167_
*209 _168_
*210 _169_
*211 _170_
*212 _171_
*213 _172_
*214 _173_
*215 _174_
*216 _175_
*217 _176_
*218 _177_
*219 _178_
*220 _179_
*221 _180_
*222 _181_
*223 _182_
*224 _183_
*225 _184_
*226 _185_
*227 _186_
*228 _187_
*229 _188_
*230 _189_
*231 _190_
*232 _191_
*233 _192_
*234 _193_
*235 _194_
*236 _195_
*237 _196_
*238 _197_
*239 _198_
*240 _199_
*241 _200_
*242 _201_
*243 _202_
*244 _203_
*245 _204_
*246 _205_
*247 _206_
*248 _207_
*249 _208_
*250 _209_
*251 _210_
*252 _211_
*253 _212_
*254 _213_
*255 _214_
*256 net1
*257 net10
*258 net11
*259 net12
*260 net13
*261 net14
*262 net15
*263 net16
*264 net17
*265 net18
*266 net19
*267 net2
*268 net20
*269 net21
*270 net22
*271 net23
*272 net24
*273 net25
*274 net26
*275 net27
*276 net28
*277 net29
*278 net3
*279 net30
*280 net31
*281 net32
*282 net33
*283 net34
*284 net35
*285 net36
*286 net37
*287 net38
*288 net39
*289 net4
*290 net40
*291 net41
*292 net42
*293 net43
*294 net44
*295 net45
*296 net46
*297 net47
*298 net5
*299 net6
*300 net7
*301 net8
*302 net9
*303 one_second_counter\[0\]
*304 one_second_counter\[10\]
*305 one_second_counter\[11\]
*306 one_second_counter\[12\]
*307 one_second_counter\[13\]
*308 one_second_counter\[14\]
*309 one_second_counter\[15\]
*310 one_second_counter\[16\]
*311 one_second_counter\[17\]
*312 one_second_counter\[18\]
*313 one_second_counter\[19\]
*314 one_second_counter\[1\]
*315 one_second_counter\[20\]
*316 one_second_counter\[21\]
*317 one_second_counter\[22\]
*318 one_second_counter\[23\]
*319 one_second_counter\[24\]
*320 one_second_counter\[25\]
*321 one_second_counter\[2\]
*322 one_second_counter\[3\]
*323 one_second_counter\[4\]
*324 one_second_counter\[5\]
*325 one_second_counter\[6\]
*326 one_second_counter\[7\]
*327 one_second_counter\[8\]
*328 one_second_counter\[9\]
*329 ANTENNA__228__A1
*330 ANTENNA__254__A1
*331 ANTENNA__257__A1
*332 ANTENNA__263__C
*333 ANTENNA__266__A1
*334 ANTENNA__276__A1
*335 ANTENNA__293__C
*336 ANTENNA__312__C
*337 ANTENNA__317__C
*338 ANTENNA__320__I
*339 ANTENNA__321__I
*340 ANTENNA__322__I
*341 ANTENNA__327__A1
*342 ANTENNA__327__A3
*343 ANTENNA__335__S
*344 ANTENNA__336__A1
*345 ANTENNA__344__A3
*346 ANTENNA__349__I
*347 ANTENNA__351__I
*348 ANTENNA__352__A1
*349 ANTENNA__357__A1
*350 ANTENNA__360__A2
*351 ANTENNA__361__A1
*352 ANTENNA__365__A2
*353 ANTENNA__367__A2
*354 ANTENNA__376__I
*355 ANTENNA__378__I
*356 ANTENNA__397__A1
*357 ANTENNA__401__B
*358 ANTENNA__410__A1
*359 ANTENNA__416__I
*360 ANTENNA__418__A1
*361 ANTENNA__425__A1
*362 ANTENNA__428__B
*363 ANTENNA__430__CLK
*364 ANTENNA__431__CLK
*365 ANTENNA__432__CLK
*366 ANTENNA__433__CLK
*367 ANTENNA__436__CLK
*368 ANTENNA_fanout21_I
*369 ANTENNA_fanout31_I
*370 ANTENNA_fanout33_I
*371 ANTENNA_fanout34_I
*372 ANTENNA_fanout39_I
*373 ANTENNA_fanout40_I
*374 ANTENNA_fanout41_I
*375 ANTENNA_fanout43_I
*376 ANTENNA_fanout44_I
*377 ANTENNA_fanout45_I
*378 ANTENNA_fanout47_I
*379 ANTENNA_input1_I
*380 ANTENNA_input2_I
*381 ANTENNA_output18_I
*382 ANTENNA_output19_I
*383 ANTENNA_output20_I
*384 ANTENNA_output3_I
*385 DigitalClock_48
*386 DigitalClock_49
*387 DigitalClock_50
*388 DigitalClock_51
*389 DigitalClock_52
*390 DigitalClock_53
*391 DigitalClock_54
*392 DigitalClock_55
*393 DigitalClock_56
*394 DigitalClock_57
*395 DigitalClock_58
*396 DigitalClock_59
*397 DigitalClock_60
*398 DigitalClock_61
*399 DigitalClock_62
*400 DigitalClock_63
*401 DigitalClock_64
*402 DigitalClock_65
*403 FILLER_0_0_1022
*404 FILLER_0_0_1038
*405 FILLER_0_0_104
*406 FILLER_0_0_1042
*407 FILLER_0_0_1044
*408 FILLER_0_0_138
*409 FILLER_0_0_172
*410 FILLER_0_0_2
*411 FILLER_0_0_206
*412 FILLER_0_0_240
*413 FILLER_0_0_274
*414 FILLER_0_0_308
*415 FILLER_0_0_342
*416 FILLER_0_0_36
*417 FILLER_0_0_376
*418 FILLER_0_0_410
*419 FILLER_0_0_444
*420 FILLER_0_0_478
*421 FILLER_0_0_512
*422 FILLER_0_0_546
*423 FILLER_0_0_580
*424 FILLER_0_0_614
*425 FILLER_0_0_648
*426 FILLER_0_0_682
*427 FILLER_0_0_70
*428 FILLER_0_0_716
*429 FILLER_0_0_750
*430 FILLER_0_0_784
*431 FILLER_0_0_818
*432 FILLER_0_0_852
*433 FILLER_0_0_886
*434 FILLER_0_0_920
*435 FILLER_0_0_954
*436 FILLER_0_0_988
*437 FILLER_0_10_101
*438 FILLER_0_10_1011
*439 FILLER_0_10_1017
*440 FILLER_0_10_1033
*441 FILLER_0_10_107
*442 FILLER_0_10_171
*443 FILLER_0_10_177
*444 FILLER_0_10_2
*445 FILLER_0_10_241
*446 FILLER_0_10_247
*447 FILLER_0_10_311
*448 FILLER_0_10_317
*449 FILLER_0_10_34
*450 FILLER_0_10_37
*451 FILLER_0_10_381
*452 FILLER_0_10_387
*453 FILLER_0_10_451
*454 FILLER_0_10_457
*455 FILLER_0_10_521
*456 FILLER_0_10_527
*457 FILLER_0_10_591
*458 FILLER_0_10_597
*459 FILLER_0_10_661
*460 FILLER_0_10_667
*461 FILLER_0_10_731
*462 FILLER_0_10_737
*463 FILLER_0_10_801
*464 FILLER_0_10_807
*465 FILLER_0_10_871
*466 FILLER_0_10_877
*467 FILLER_0_10_941
*468 FILLER_0_10_947
*469 FILLER_0_11_1014
*470 FILLER_0_11_1030
*471 FILLER_0_11_1038
*472 FILLER_0_11_1042
*473 FILLER_0_11_1044
*474 FILLER_0_11_136
*475 FILLER_0_11_142
*476 FILLER_0_11_2
*477 FILLER_0_11_206
*478 FILLER_0_11_212
*479 FILLER_0_11_276
*480 FILLER_0_11_282
*481 FILLER_0_11_346
*482 FILLER_0_11_352
*483 FILLER_0_11_416
*484 FILLER_0_11_422
*485 FILLER_0_11_486
*486 FILLER_0_11_492
*487 FILLER_0_11_556
*488 FILLER_0_11_562
*489 FILLER_0_11_626
*490 FILLER_0_11_632
*491 FILLER_0_11_66
*492 FILLER_0_11_696
*493 FILLER_0_11_702
*494 FILLER_0_11_72
*495 FILLER_0_11_766
*496 FILLER_0_11_772
*497 FILLER_0_11_836
*498 FILLER_0_11_842
*499 FILLER_0_11_906
*500 FILLER_0_11_912
*501 FILLER_0_11_976
*502 FILLER_0_11_982
*503 FILLER_0_12_101
*504 FILLER_0_12_1011
*505 FILLER_0_12_1017
*506 FILLER_0_12_107
*507 FILLER_0_12_171
*508 FILLER_0_12_177
*509 FILLER_0_12_2
*510 FILLER_0_12_241
*511 FILLER_0_12_247
*512 FILLER_0_12_311
*513 FILLER_0_12_317
*514 FILLER_0_12_34
*515 FILLER_0_12_37
*516 FILLER_0_12_381
*517 FILLER_0_12_387
*518 FILLER_0_12_451
*519 FILLER_0_12_457
*520 FILLER_0_12_521
*521 FILLER_0_12_527
*522 FILLER_0_12_591
*523 FILLER_0_12_597
*524 FILLER_0_12_661
*525 FILLER_0_12_667
*526 FILLER_0_12_731
*527 FILLER_0_12_737
*528 FILLER_0_12_801
*529 FILLER_0_12_807
*530 FILLER_0_12_871
*531 FILLER_0_12_877
*532 FILLER_0_12_941
*533 FILLER_0_12_947
*534 FILLER_0_13_1014
*535 FILLER_0_13_1030
*536 FILLER_0_13_1038
*537 FILLER_0_13_1042
*538 FILLER_0_13_1044
*539 FILLER_0_13_136
*540 FILLER_0_13_142
*541 FILLER_0_13_2
*542 FILLER_0_13_206
*543 FILLER_0_13_212
*544 FILLER_0_13_276
*545 FILLER_0_13_282
*546 FILLER_0_13_346
*547 FILLER_0_13_352
*548 FILLER_0_13_416
*549 FILLER_0_13_422
*550 FILLER_0_13_486
*551 FILLER_0_13_492
*552 FILLER_0_13_556
*553 FILLER_0_13_562
*554 FILLER_0_13_626
*555 FILLER_0_13_632
*556 FILLER_0_13_66
*557 FILLER_0_13_696
*558 FILLER_0_13_702
*559 FILLER_0_13_72
*560 FILLER_0_13_766
*561 FILLER_0_13_772
*562 FILLER_0_13_836
*563 FILLER_0_13_842
*564 FILLER_0_13_906
*565 FILLER_0_13_912
*566 FILLER_0_13_976
*567 FILLER_0_13_982
*568 FILLER_0_14_101
*569 FILLER_0_14_1011
*570 FILLER_0_14_1017
*571 FILLER_0_14_1033
*572 FILLER_0_14_1041
*573 FILLER_0_14_107
*574 FILLER_0_14_171
*575 FILLER_0_14_177
*576 FILLER_0_14_2
*577 FILLER_0_14_241
*578 FILLER_0_14_247
*579 FILLER_0_14_311
*580 FILLER_0_14_317
*581 FILLER_0_14_34
*582 FILLER_0_14_37
*583 FILLER_0_14_381
*584 FILLER_0_14_387
*585 FILLER_0_14_451
*586 FILLER_0_14_457
*587 FILLER_0_14_521
*588 FILLER_0_14_527
*589 FILLER_0_14_591
*590 FILLER_0_14_597
*591 FILLER_0_14_661
*592 FILLER_0_14_667
*593 FILLER_0_14_731
*594 FILLER_0_14_737
*595 FILLER_0_14_801
*596 FILLER_0_14_807
*597 FILLER_0_14_871
*598 FILLER_0_14_877
*599 FILLER_0_14_941
*600 FILLER_0_14_947
*601 FILLER_0_15_1014
*602 FILLER_0_15_1030
*603 FILLER_0_15_1038
*604 FILLER_0_15_1040
*605 FILLER_0_15_136
*606 FILLER_0_15_142
*607 FILLER_0_15_2
*608 FILLER_0_15_206
*609 FILLER_0_15_212
*610 FILLER_0_15_276
*611 FILLER_0_15_282
*612 FILLER_0_15_346
*613 FILLER_0_15_352
*614 FILLER_0_15_416
*615 FILLER_0_15_422
*616 FILLER_0_15_486
*617 FILLER_0_15_492
*618 FILLER_0_15_556
*619 FILLER_0_15_562
*620 FILLER_0_15_626
*621 FILLER_0_15_632
*622 FILLER_0_15_66
*623 FILLER_0_15_696
*624 FILLER_0_15_702
*625 FILLER_0_15_72
*626 FILLER_0_15_766
*627 FILLER_0_15_772
*628 FILLER_0_15_836
*629 FILLER_0_15_842
*630 FILLER_0_15_906
*631 FILLER_0_15_912
*632 FILLER_0_15_976
*633 FILLER_0_15_982
*634 FILLER_0_16_101
*635 FILLER_0_16_1011
*636 FILLER_0_16_1017
*637 FILLER_0_16_1033
*638 FILLER_0_16_1041
*639 FILLER_0_16_107
*640 FILLER_0_16_171
*641 FILLER_0_16_177
*642 FILLER_0_16_2
*643 FILLER_0_16_241
*644 FILLER_0_16_247
*645 FILLER_0_16_311
*646 FILLER_0_16_317
*647 FILLER_0_16_34
*648 FILLER_0_16_37
*649 FILLER_0_16_381
*650 FILLER_0_16_387
*651 FILLER_0_16_451
*652 FILLER_0_16_457
*653 FILLER_0_16_521
*654 FILLER_0_16_527
*655 FILLER_0_16_591
*656 FILLER_0_16_597
*657 FILLER_0_16_661
*658 FILLER_0_16_667
*659 FILLER_0_16_731
*660 FILLER_0_16_737
*661 FILLER_0_16_801
*662 FILLER_0_16_807
*663 FILLER_0_16_871
*664 FILLER_0_16_877
*665 FILLER_0_16_941
*666 FILLER_0_16_947
*667 FILLER_0_17_1014
*668 FILLER_0_17_1018
*669 FILLER_0_17_136
*670 FILLER_0_17_142
*671 FILLER_0_17_2
*672 FILLER_0_17_206
*673 FILLER_0_17_212
*674 FILLER_0_17_276
*675 FILLER_0_17_282
*676 FILLER_0_17_346
*677 FILLER_0_17_352
*678 FILLER_0_17_416
*679 FILLER_0_17_422
*680 FILLER_0_17_486
*681 FILLER_0_17_492
*682 FILLER_0_17_556
*683 FILLER_0_17_562
*684 FILLER_0_17_626
*685 FILLER_0_17_632
*686 FILLER_0_17_66
*687 FILLER_0_17_696
*688 FILLER_0_17_702
*689 FILLER_0_17_72
*690 FILLER_0_17_766
*691 FILLER_0_17_772
*692 FILLER_0_17_836
*693 FILLER_0_17_842
*694 FILLER_0_17_906
*695 FILLER_0_17_912
*696 FILLER_0_17_976
*697 FILLER_0_17_982
*698 FILLER_0_18_101
*699 FILLER_0_18_1011
*700 FILLER_0_18_1017
*701 FILLER_0_18_1033
*702 FILLER_0_18_1041
*703 FILLER_0_18_107
*704 FILLER_0_18_171
*705 FILLER_0_18_177
*706 FILLER_0_18_2
*707 FILLER_0_18_241
*708 FILLER_0_18_247
*709 FILLER_0_18_311
*710 FILLER_0_18_317
*711 FILLER_0_18_34
*712 FILLER_0_18_37
*713 FILLER_0_18_381
*714 FILLER_0_18_387
*715 FILLER_0_18_451
*716 FILLER_0_18_457
*717 FILLER_0_18_521
*718 FILLER_0_18_527
*719 FILLER_0_18_591
*720 FILLER_0_18_597
*721 FILLER_0_18_661
*722 FILLER_0_18_667
*723 FILLER_0_18_731
*724 FILLER_0_18_737
*725 FILLER_0_18_801
*726 FILLER_0_18_807
*727 FILLER_0_18_871
*728 FILLER_0_18_877
*729 FILLER_0_18_941
*730 FILLER_0_18_947
*731 FILLER_0_19_1024
*732 FILLER_0_19_1040
*733 FILLER_0_19_1044
*734 FILLER_0_19_136
*735 FILLER_0_19_142
*736 FILLER_0_19_2
*737 FILLER_0_19_206
*738 FILLER_0_19_212
*739 FILLER_0_19_276
*740 FILLER_0_19_282
*741 FILLER_0_19_346
*742 FILLER_0_19_352
*743 FILLER_0_19_416
*744 FILLER_0_19_422
*745 FILLER_0_19_486
*746 FILLER_0_19_492
*747 FILLER_0_19_556
*748 FILLER_0_19_562
*749 FILLER_0_19_626
*750 FILLER_0_19_632
*751 FILLER_0_19_66
*752 FILLER_0_19_696
*753 FILLER_0_19_702
*754 FILLER_0_19_72
*755 FILLER_0_19_766
*756 FILLER_0_19_772
*757 FILLER_0_19_836
*758 FILLER_0_19_842
*759 FILLER_0_19_906
*760 FILLER_0_19_912
*761 FILLER_0_19_976
*762 FILLER_0_19_982
*763 FILLER_0_19_990
*764 FILLER_0_19_992
*765 FILLER_0_1_1014
*766 FILLER_0_1_1030
*767 FILLER_0_1_1038
*768 FILLER_0_1_1042
*769 FILLER_0_1_1044
*770 FILLER_0_1_136
*771 FILLER_0_1_142
*772 FILLER_0_1_2
*773 FILLER_0_1_206
*774 FILLER_0_1_212
*775 FILLER_0_1_276
*776 FILLER_0_1_282
*777 FILLER_0_1_346
*778 FILLER_0_1_352
*779 FILLER_0_1_416
*780 FILLER_0_1_422
*781 FILLER_0_1_486
*782 FILLER_0_1_492
*783 FILLER_0_1_556
*784 FILLER_0_1_562
*785 FILLER_0_1_626
*786 FILLER_0_1_632
*787 FILLER_0_1_66
*788 FILLER_0_1_696
*789 FILLER_0_1_702
*790 FILLER_0_1_72
*791 FILLER_0_1_766
*792 FILLER_0_1_772
*793 FILLER_0_1_836
*794 FILLER_0_1_842
*795 FILLER_0_1_906
*796 FILLER_0_1_912
*797 FILLER_0_1_976
*798 FILLER_0_1_982
*799 FILLER_0_20_101
*800 FILLER_0_20_1017
*801 FILLER_0_20_1021
*802 FILLER_0_20_1037
*803 FILLER_0_20_107
*804 FILLER_0_20_171
*805 FILLER_0_20_177
*806 FILLER_0_20_2
*807 FILLER_0_20_241
*808 FILLER_0_20_247
*809 FILLER_0_20_311
*810 FILLER_0_20_317
*811 FILLER_0_20_34
*812 FILLER_0_20_37
*813 FILLER_0_20_381
*814 FILLER_0_20_387
*815 FILLER_0_20_451
*816 FILLER_0_20_457
*817 FILLER_0_20_521
*818 FILLER_0_20_527
*819 FILLER_0_20_591
*820 FILLER_0_20_597
*821 FILLER_0_20_661
*822 FILLER_0_20_667
*823 FILLER_0_20_731
*824 FILLER_0_20_737
*825 FILLER_0_20_801
*826 FILLER_0_20_807
*827 FILLER_0_20_871
*828 FILLER_0_20_877
*829 FILLER_0_20_941
*830 FILLER_0_20_947
*831 FILLER_0_20_979
*832 FILLER_0_20_995
*833 FILLER_0_21_1008
*834 FILLER_0_21_1038
*835 FILLER_0_21_1042
*836 FILLER_0_21_1044
*837 FILLER_0_21_136
*838 FILLER_0_21_142
*839 FILLER_0_21_2
*840 FILLER_0_21_206
*841 FILLER_0_21_212
*842 FILLER_0_21_276
*843 FILLER_0_21_282
*844 FILLER_0_21_346
*845 FILLER_0_21_352
*846 FILLER_0_21_416
*847 FILLER_0_21_422
*848 FILLER_0_21_486
*849 FILLER_0_21_492
*850 FILLER_0_21_556
*851 FILLER_0_21_562
*852 FILLER_0_21_626
*853 FILLER_0_21_632
*854 FILLER_0_21_66
*855 FILLER_0_21_696
*856 FILLER_0_21_702
*857 FILLER_0_21_72
*858 FILLER_0_21_766
*859 FILLER_0_21_772
*860 FILLER_0_21_836
*861 FILLER_0_21_842
*862 FILLER_0_21_906
*863 FILLER_0_21_912
*864 FILLER_0_21_976
*865 FILLER_0_21_982
*866 FILLER_0_21_990
*867 FILLER_0_22_101
*868 FILLER_0_22_1017
*869 FILLER_0_22_107
*870 FILLER_0_22_171
*871 FILLER_0_22_177
*872 FILLER_0_22_2
*873 FILLER_0_22_241
*874 FILLER_0_22_247
*875 FILLER_0_22_311
*876 FILLER_0_22_317
*877 FILLER_0_22_34
*878 FILLER_0_22_37
*879 FILLER_0_22_381
*880 FILLER_0_22_387
*881 FILLER_0_22_451
*882 FILLER_0_22_457
*883 FILLER_0_22_521
*884 FILLER_0_22_527
*885 FILLER_0_22_591
*886 FILLER_0_22_597
*887 FILLER_0_22_661
*888 FILLER_0_22_667
*889 FILLER_0_22_731
*890 FILLER_0_22_737
*891 FILLER_0_22_801
*892 FILLER_0_22_807
*893 FILLER_0_22_871
*894 FILLER_0_22_877
*895 FILLER_0_22_941
*896 FILLER_0_22_978
*897 FILLER_0_23_1024
*898 FILLER_0_23_1028
*899 FILLER_0_23_1044
*900 FILLER_0_23_136
*901 FILLER_0_23_142
*902 FILLER_0_23_2
*903 FILLER_0_23_206
*904 FILLER_0_23_212
*905 FILLER_0_23_276
*906 FILLER_0_23_282
*907 FILLER_0_23_346
*908 FILLER_0_23_352
*909 FILLER_0_23_416
*910 FILLER_0_23_422
*911 FILLER_0_23_486
*912 FILLER_0_23_492
*913 FILLER_0_23_556
*914 FILLER_0_23_562
*915 FILLER_0_23_626
*916 FILLER_0_23_632
*917 FILLER_0_23_66
*918 FILLER_0_23_696
*919 FILLER_0_23_702
*920 FILLER_0_23_72
*921 FILLER_0_23_766
*922 FILLER_0_23_772
*923 FILLER_0_23_836
*924 FILLER_0_23_842
*925 FILLER_0_23_906
*926 FILLER_0_23_912
*927 FILLER_0_23_976
*928 FILLER_0_23_982
*929 FILLER_0_23_990
*930 FILLER_0_23_992
*931 FILLER_0_24_1007
*932 FILLER_0_24_101
*933 FILLER_0_24_1014
*934 FILLER_0_24_1021
*935 FILLER_0_24_1037
*936 FILLER_0_24_107
*937 FILLER_0_24_171
*938 FILLER_0_24_177
*939 FILLER_0_24_2
*940 FILLER_0_24_241
*941 FILLER_0_24_247
*942 FILLER_0_24_311
*943 FILLER_0_24_317
*944 FILLER_0_24_34
*945 FILLER_0_24_37
*946 FILLER_0_24_381
*947 FILLER_0_24_387
*948 FILLER_0_24_451
*949 FILLER_0_24_457
*950 FILLER_0_24_521
*951 FILLER_0_24_527
*952 FILLER_0_24_591
*953 FILLER_0_24_597
*954 FILLER_0_24_661
*955 FILLER_0_24_667
*956 FILLER_0_24_731
*957 FILLER_0_24_737
*958 FILLER_0_24_801
*959 FILLER_0_24_807
*960 FILLER_0_24_871
*961 FILLER_0_24_877
*962 FILLER_0_24_941
*963 FILLER_0_24_947
*964 FILLER_0_24_955
*965 FILLER_0_24_965
*966 FILLER_0_24_981
*967 FILLER_0_24_989
*968 FILLER_0_24_993
*969 FILLER_0_24_995
*970 FILLER_0_25_1025
*971 FILLER_0_25_136
*972 FILLER_0_25_142
*973 FILLER_0_25_2
*974 FILLER_0_25_206
*975 FILLER_0_25_212
*976 FILLER_0_25_276
*977 FILLER_0_25_282
*978 FILLER_0_25_346
*979 FILLER_0_25_352
*980 FILLER_0_25_416
*981 FILLER_0_25_422
*982 FILLER_0_25_486
*983 FILLER_0_25_492
*984 FILLER_0_25_556
*985 FILLER_0_25_562
*986 FILLER_0_25_626
*987 FILLER_0_25_632
*988 FILLER_0_25_66
*989 FILLER_0_25_696
*990 FILLER_0_25_702
*991 FILLER_0_25_72
*992 FILLER_0_25_766
*993 FILLER_0_25_772
*994 FILLER_0_25_836
*995 FILLER_0_25_842
*996 FILLER_0_25_906
*997 FILLER_0_25_912
*998 FILLER_0_25_944
*999 FILLER_0_25_952
*1000 FILLER_0_25_962
*1001 FILLER_0_25_978
*1002 FILLER_0_25_990
*1003 FILLER_0_25_994
*1004 FILLER_0_25_996
*1005 FILLER_0_26_101
*1006 FILLER_0_26_1023
*1007 FILLER_0_26_1027
*1008 FILLER_0_26_1031
*1009 FILLER_0_26_1039
*1010 FILLER_0_26_1043
*1011 FILLER_0_26_107
*1012 FILLER_0_26_171
*1013 FILLER_0_26_177
*1014 FILLER_0_26_2
*1015 FILLER_0_26_241
*1016 FILLER_0_26_247
*1017 FILLER_0_26_311
*1018 FILLER_0_26_317
*1019 FILLER_0_26_34
*1020 FILLER_0_26_37
*1021 FILLER_0_26_381
*1022 FILLER_0_26_387
*1023 FILLER_0_26_451
*1024 FILLER_0_26_457
*1025 FILLER_0_26_521
*1026 FILLER_0_26_527
*1027 FILLER_0_26_591
*1028 FILLER_0_26_597
*1029 FILLER_0_26_661
*1030 FILLER_0_26_667
*1031 FILLER_0_26_731
*1032 FILLER_0_26_737
*1033 FILLER_0_26_801
*1034 FILLER_0_26_807
*1035 FILLER_0_26_871
*1036 FILLER_0_26_877
*1037 FILLER_0_26_941
*1038 FILLER_0_26_947
*1039 FILLER_0_26_951
*1040 FILLER_0_26_953
*1041 FILLER_0_27_1038
*1042 FILLER_0_27_1042
*1043 FILLER_0_27_1044
*1044 FILLER_0_27_136
*1045 FILLER_0_27_142
*1046 FILLER_0_27_2
*1047 FILLER_0_27_206
*1048 FILLER_0_27_212
*1049 FILLER_0_27_276
*1050 FILLER_0_27_282
*1051 FILLER_0_27_346
*1052 FILLER_0_27_352
*1053 FILLER_0_27_416
*1054 FILLER_0_27_422
*1055 FILLER_0_27_486
*1056 FILLER_0_27_492
*1057 FILLER_0_27_556
*1058 FILLER_0_27_562
*1059 FILLER_0_27_626
*1060 FILLER_0_27_632
*1061 FILLER_0_27_66
*1062 FILLER_0_27_696
*1063 FILLER_0_27_702
*1064 FILLER_0_27_72
*1065 FILLER_0_27_766
*1066 FILLER_0_27_772
*1067 FILLER_0_27_836
*1068 FILLER_0_27_842
*1069 FILLER_0_27_906
*1070 FILLER_0_27_912
*1071 FILLER_0_27_944
*1072 FILLER_0_27_952
*1073 FILLER_0_27_956
*1074 FILLER_0_27_964
*1075 FILLER_0_27_982
*1076 FILLER_0_27_990
*1077 FILLER_0_28_1008
*1078 FILLER_0_28_101
*1079 FILLER_0_28_1017
*1080 FILLER_0_28_107
*1081 FILLER_0_28_171
*1082 FILLER_0_28_177
*1083 FILLER_0_28_2
*1084 FILLER_0_28_241
*1085 FILLER_0_28_247
*1086 FILLER_0_28_311
*1087 FILLER_0_28_317
*1088 FILLER_0_28_34
*1089 FILLER_0_28_37
*1090 FILLER_0_28_381
*1091 FILLER_0_28_387
*1092 FILLER_0_28_451
*1093 FILLER_0_28_457
*1094 FILLER_0_28_521
*1095 FILLER_0_28_527
*1096 FILLER_0_28_591
*1097 FILLER_0_28_597
*1098 FILLER_0_28_661
*1099 FILLER_0_28_667
*1100 FILLER_0_28_731
*1101 FILLER_0_28_737
*1102 FILLER_0_28_801
*1103 FILLER_0_28_807
*1104 FILLER_0_28_871
*1105 FILLER_0_28_877
*1106 FILLER_0_28_941
*1107 FILLER_0_28_947
*1108 FILLER_0_28_979
*1109 FILLER_0_28_987
*1110 FILLER_0_28_991
*1111 FILLER_0_28_993
*1112 FILLER_0_29_1040
*1113 FILLER_0_29_1044
*1114 FILLER_0_29_136
*1115 FILLER_0_29_142
*1116 FILLER_0_29_2
*1117 FILLER_0_29_206
*1118 FILLER_0_29_212
*1119 FILLER_0_29_276
*1120 FILLER_0_29_282
*1121 FILLER_0_29_346
*1122 FILLER_0_29_352
*1123 FILLER_0_29_416
*1124 FILLER_0_29_422
*1125 FILLER_0_29_486
*1126 FILLER_0_29_492
*1127 FILLER_0_29_556
*1128 FILLER_0_29_562
*1129 FILLER_0_29_626
*1130 FILLER_0_29_632
*1131 FILLER_0_29_66
*1132 FILLER_0_29_696
*1133 FILLER_0_29_702
*1134 FILLER_0_29_72
*1135 FILLER_0_29_766
*1136 FILLER_0_29_772
*1137 FILLER_0_29_836
*1138 FILLER_0_29_842
*1139 FILLER_0_29_906
*1140 FILLER_0_29_912
*1141 FILLER_0_29_976
*1142 FILLER_0_29_982
*1143 FILLER_0_29_990
*1144 FILLER_0_29_994
*1145 FILLER_0_2_101
*1146 FILLER_0_2_1011
*1147 FILLER_0_2_1017
*1148 FILLER_0_2_107
*1149 FILLER_0_2_171
*1150 FILLER_0_2_177
*1151 FILLER_0_2_2
*1152 FILLER_0_2_241
*1153 FILLER_0_2_247
*1154 FILLER_0_2_311
*1155 FILLER_0_2_317
*1156 FILLER_0_2_34
*1157 FILLER_0_2_37
*1158 FILLER_0_2_381
*1159 FILLER_0_2_387
*1160 FILLER_0_2_451
*1161 FILLER_0_2_457
*1162 FILLER_0_2_521
*1163 FILLER_0_2_527
*1164 FILLER_0_2_591
*1165 FILLER_0_2_597
*1166 FILLER_0_2_661
*1167 FILLER_0_2_667
*1168 FILLER_0_2_731
*1169 FILLER_0_2_737
*1170 FILLER_0_2_801
*1171 FILLER_0_2_807
*1172 FILLER_0_2_871
*1173 FILLER_0_2_877
*1174 FILLER_0_2_941
*1175 FILLER_0_2_947
*1176 FILLER_0_30_1004
*1177 FILLER_0_30_101
*1178 FILLER_0_30_1010
*1179 FILLER_0_30_1014
*1180 FILLER_0_30_1017
*1181 FILLER_0_30_1033
*1182 FILLER_0_30_107
*1183 FILLER_0_30_171
*1184 FILLER_0_30_177
*1185 FILLER_0_30_2
*1186 FILLER_0_30_241
*1187 FILLER_0_30_247
*1188 FILLER_0_30_311
*1189 FILLER_0_30_317
*1190 FILLER_0_30_34
*1191 FILLER_0_30_37
*1192 FILLER_0_30_381
*1193 FILLER_0_30_387
*1194 FILLER_0_30_451
*1195 FILLER_0_30_457
*1196 FILLER_0_30_521
*1197 FILLER_0_30_527
*1198 FILLER_0_30_591
*1199 FILLER_0_30_597
*1200 FILLER_0_30_661
*1201 FILLER_0_30_667
*1202 FILLER_0_30_731
*1203 FILLER_0_30_737
*1204 FILLER_0_30_801
*1205 FILLER_0_30_807
*1206 FILLER_0_30_871
*1207 FILLER_0_30_877
*1208 FILLER_0_30_941
*1209 FILLER_0_30_947
*1210 FILLER_0_30_979
*1211 FILLER_0_30_995
*1212 FILLER_0_31_1014
*1213 FILLER_0_31_1030
*1214 FILLER_0_31_1038
*1215 FILLER_0_31_1042
*1216 FILLER_0_31_1044
*1217 FILLER_0_31_136
*1218 FILLER_0_31_142
*1219 FILLER_0_31_2
*1220 FILLER_0_31_206
*1221 FILLER_0_31_212
*1222 FILLER_0_31_276
*1223 FILLER_0_31_282
*1224 FILLER_0_31_346
*1225 FILLER_0_31_352
*1226 FILLER_0_31_416
*1227 FILLER_0_31_422
*1228 FILLER_0_31_486
*1229 FILLER_0_31_492
*1230 FILLER_0_31_556
*1231 FILLER_0_31_562
*1232 FILLER_0_31_626
*1233 FILLER_0_31_632
*1234 FILLER_0_31_66
*1235 FILLER_0_31_696
*1236 FILLER_0_31_702
*1237 FILLER_0_31_72
*1238 FILLER_0_31_766
*1239 FILLER_0_31_772
*1240 FILLER_0_31_836
*1241 FILLER_0_31_842
*1242 FILLER_0_31_906
*1243 FILLER_0_31_912
*1244 FILLER_0_31_976
*1245 FILLER_0_31_982
*1246 FILLER_0_32_101
*1247 FILLER_0_32_1013
*1248 FILLER_0_32_1017
*1249 FILLER_0_32_1033
*1250 FILLER_0_32_1041
*1251 FILLER_0_32_107
*1252 FILLER_0_32_171
*1253 FILLER_0_32_177
*1254 FILLER_0_32_2
*1255 FILLER_0_32_241
*1256 FILLER_0_32_247
*1257 FILLER_0_32_311
*1258 FILLER_0_32_317
*1259 FILLER_0_32_34
*1260 FILLER_0_32_37
*1261 FILLER_0_32_381
*1262 FILLER_0_32_387
*1263 FILLER_0_32_451
*1264 FILLER_0_32_457
*1265 FILLER_0_32_521
*1266 FILLER_0_32_527
*1267 FILLER_0_32_591
*1268 FILLER_0_32_597
*1269 FILLER_0_32_661
*1270 FILLER_0_32_667
*1271 FILLER_0_32_731
*1272 FILLER_0_32_737
*1273 FILLER_0_32_801
*1274 FILLER_0_32_807
*1275 FILLER_0_32_871
*1276 FILLER_0_32_877
*1277 FILLER_0_32_941
*1278 FILLER_0_32_947
*1279 FILLER_0_32_979
*1280 FILLER_0_32_987
*1281 FILLER_0_32_997
*1282 FILLER_0_33_1014
*1283 FILLER_0_33_1018
*1284 FILLER_0_33_136
*1285 FILLER_0_33_142
*1286 FILLER_0_33_2
*1287 FILLER_0_33_206
*1288 FILLER_0_33_212
*1289 FILLER_0_33_276
*1290 FILLER_0_33_282
*1291 FILLER_0_33_346
*1292 FILLER_0_33_352
*1293 FILLER_0_33_416
*1294 FILLER_0_33_422
*1295 FILLER_0_33_486
*1296 FILLER_0_33_492
*1297 FILLER_0_33_556
*1298 FILLER_0_33_562
*1299 FILLER_0_33_626
*1300 FILLER_0_33_632
*1301 FILLER_0_33_66
*1302 FILLER_0_33_696
*1303 FILLER_0_33_702
*1304 FILLER_0_33_72
*1305 FILLER_0_33_766
*1306 FILLER_0_33_772
*1307 FILLER_0_33_836
*1308 FILLER_0_33_842
*1309 FILLER_0_33_906
*1310 FILLER_0_33_912
*1311 FILLER_0_33_976
*1312 FILLER_0_33_982
*1313 FILLER_0_34_101
*1314 FILLER_0_34_1011
*1315 FILLER_0_34_1017
*1316 FILLER_0_34_1033
*1317 FILLER_0_34_1041
*1318 FILLER_0_34_107
*1319 FILLER_0_34_171
*1320 FILLER_0_34_177
*1321 FILLER_0_34_2
*1322 FILLER_0_34_241
*1323 FILLER_0_34_247
*1324 FILLER_0_34_311
*1325 FILLER_0_34_317
*1326 FILLER_0_34_34
*1327 FILLER_0_34_37
*1328 FILLER_0_34_381
*1329 FILLER_0_34_387
*1330 FILLER_0_34_451
*1331 FILLER_0_34_457
*1332 FILLER_0_34_521
*1333 FILLER_0_34_527
*1334 FILLER_0_34_591
*1335 FILLER_0_34_597
*1336 FILLER_0_34_661
*1337 FILLER_0_34_667
*1338 FILLER_0_34_731
*1339 FILLER_0_34_737
*1340 FILLER_0_34_801
*1341 FILLER_0_34_807
*1342 FILLER_0_34_871
*1343 FILLER_0_34_877
*1344 FILLER_0_34_941
*1345 FILLER_0_34_947
*1346 FILLER_0_35_1014
*1347 FILLER_0_35_1030
*1348 FILLER_0_35_1038
*1349 FILLER_0_35_1040
*1350 FILLER_0_35_136
*1351 FILLER_0_35_142
*1352 FILLER_0_35_2
*1353 FILLER_0_35_206
*1354 FILLER_0_35_212
*1355 FILLER_0_35_276
*1356 FILLER_0_35_282
*1357 FILLER_0_35_346
*1358 FILLER_0_35_352
*1359 FILLER_0_35_416
*1360 FILLER_0_35_422
*1361 FILLER_0_35_486
*1362 FILLER_0_35_492
*1363 FILLER_0_35_556
*1364 FILLER_0_35_562
*1365 FILLER_0_35_626
*1366 FILLER_0_35_632
*1367 FILLER_0_35_66
*1368 FILLER_0_35_696
*1369 FILLER_0_35_702
*1370 FILLER_0_35_72
*1371 FILLER_0_35_766
*1372 FILLER_0_35_772
*1373 FILLER_0_35_836
*1374 FILLER_0_35_842
*1375 FILLER_0_35_906
*1376 FILLER_0_35_912
*1377 FILLER_0_35_976
*1378 FILLER_0_35_982
*1379 FILLER_0_36_101
*1380 FILLER_0_36_1011
*1381 FILLER_0_36_1017
*1382 FILLER_0_36_1033
*1383 FILLER_0_36_1041
*1384 FILLER_0_36_107
*1385 FILLER_0_36_171
*1386 FILLER_0_36_177
*1387 FILLER_0_36_2
*1388 FILLER_0_36_241
*1389 FILLER_0_36_247
*1390 FILLER_0_36_311
*1391 FILLER_0_36_317
*1392 FILLER_0_36_34
*1393 FILLER_0_36_37
*1394 FILLER_0_36_381
*1395 FILLER_0_36_387
*1396 FILLER_0_36_451
*1397 FILLER_0_36_457
*1398 FILLER_0_36_521
*1399 FILLER_0_36_527
*1400 FILLER_0_36_591
*1401 FILLER_0_36_597
*1402 FILLER_0_36_661
*1403 FILLER_0_36_667
*1404 FILLER_0_36_731
*1405 FILLER_0_36_737
*1406 FILLER_0_36_801
*1407 FILLER_0_36_807
*1408 FILLER_0_36_871
*1409 FILLER_0_36_877
*1410 FILLER_0_36_941
*1411 FILLER_0_36_947
*1412 FILLER_0_37_1014
*1413 FILLER_0_37_1030
*1414 FILLER_0_37_1038
*1415 FILLER_0_37_1042
*1416 FILLER_0_37_1044
*1417 FILLER_0_37_136
*1418 FILLER_0_37_142
*1419 FILLER_0_37_2
*1420 FILLER_0_37_206
*1421 FILLER_0_37_212
*1422 FILLER_0_37_276
*1423 FILLER_0_37_282
*1424 FILLER_0_37_346
*1425 FILLER_0_37_352
*1426 FILLER_0_37_416
*1427 FILLER_0_37_422
*1428 FILLER_0_37_486
*1429 FILLER_0_37_492
*1430 FILLER_0_37_556
*1431 FILLER_0_37_562
*1432 FILLER_0_37_626
*1433 FILLER_0_37_632
*1434 FILLER_0_37_66
*1435 FILLER_0_37_696
*1436 FILLER_0_37_702
*1437 FILLER_0_37_72
*1438 FILLER_0_37_766
*1439 FILLER_0_37_772
*1440 FILLER_0_37_836
*1441 FILLER_0_37_842
*1442 FILLER_0_37_906
*1443 FILLER_0_37_912
*1444 FILLER_0_37_976
*1445 FILLER_0_37_982
*1446 FILLER_0_38_101
*1447 FILLER_0_38_1011
*1448 FILLER_0_38_1017
*1449 FILLER_0_38_107
*1450 FILLER_0_38_171
*1451 FILLER_0_38_177
*1452 FILLER_0_38_2
*1453 FILLER_0_38_241
*1454 FILLER_0_38_247
*1455 FILLER_0_38_311
*1456 FILLER_0_38_317
*1457 FILLER_0_38_34
*1458 FILLER_0_38_37
*1459 FILLER_0_38_381
*1460 FILLER_0_38_387
*1461 FILLER_0_38_451
*1462 FILLER_0_38_457
*1463 FILLER_0_38_521
*1464 FILLER_0_38_527
*1465 FILLER_0_38_591
*1466 FILLER_0_38_597
*1467 FILLER_0_38_661
*1468 FILLER_0_38_667
*1469 FILLER_0_38_731
*1470 FILLER_0_38_737
*1471 FILLER_0_38_801
*1472 FILLER_0_38_807
*1473 FILLER_0_38_871
*1474 FILLER_0_38_877
*1475 FILLER_0_38_941
*1476 FILLER_0_38_947
*1477 FILLER_0_39_1014
*1478 FILLER_0_39_1030
*1479 FILLER_0_39_1038
*1480 FILLER_0_39_1042
*1481 FILLER_0_39_1044
*1482 FILLER_0_39_136
*1483 FILLER_0_39_142
*1484 FILLER_0_39_2
*1485 FILLER_0_39_206
*1486 FILLER_0_39_212
*1487 FILLER_0_39_276
*1488 FILLER_0_39_282
*1489 FILLER_0_39_346
*1490 FILLER_0_39_352
*1491 FILLER_0_39_416
*1492 FILLER_0_39_422
*1493 FILLER_0_39_486
*1494 FILLER_0_39_492
*1495 FILLER_0_39_556
*1496 FILLER_0_39_562
*1497 FILLER_0_39_626
*1498 FILLER_0_39_632
*1499 FILLER_0_39_66
*1500 FILLER_0_39_696
*1501 FILLER_0_39_702
*1502 FILLER_0_39_72
*1503 FILLER_0_39_766
*1504 FILLER_0_39_772
*1505 FILLER_0_39_836
*1506 FILLER_0_39_842
*1507 FILLER_0_39_906
*1508 FILLER_0_39_912
*1509 FILLER_0_39_976
*1510 FILLER_0_39_982
*1511 FILLER_0_3_1014
*1512 FILLER_0_3_1030
*1513 FILLER_0_3_1038
*1514 FILLER_0_3_1042
*1515 FILLER_0_3_1044
*1516 FILLER_0_3_136
*1517 FILLER_0_3_142
*1518 FILLER_0_3_2
*1519 FILLER_0_3_206
*1520 FILLER_0_3_212
*1521 FILLER_0_3_276
*1522 FILLER_0_3_282
*1523 FILLER_0_3_346
*1524 FILLER_0_3_352
*1525 FILLER_0_3_416
*1526 FILLER_0_3_422
*1527 FILLER_0_3_486