*SPEF "ieee 1481-1999"
*DESIGN "user_project_wrapper"
*DATE "11:11:11 Fri 11 11, 1111"
*VENDOR "OpenRCX"
*PROGRAM "Parallel Extraction"
*VERSION "1.0"
*DESIGN_FLOW "NAME_SCOPE LOCAL" "PIN_CAP NONE"
*DIVIDER /
*DELIMITER :
*BUS_DELIMITER []
*T_UNIT 1 NS
*C_UNIT 1 PF
*R_UNIT 1 OHM
*L_UNIT 1 HENRY

*NAME_MAP
*1 io_in[0]
*2 io_in[10]
*3 io_in[11]
*4 io_in[12]
*5 io_in[13]
*6 io_in[14]
*7 io_in[15]
*8 io_in[16]
*9 io_in[17]
*10 io_in[18]
*11 io_in[19]
*12 io_in[1]
*13 io_in[20]
*14 io_in[21]
*15 io_in[22]
*16 io_in[23]
*17 io_in[24]
*18 io_in[25]
*19 io_in[26]
*20 io_in[27]
*21 io_in[28]
*22 io_in[29]
*23 io_in[2]
*24 io_in[30]
*25 io_in[31]
*26 io_in[32]
*27 io_in[33]
*28 io_in[34]
*29 io_in[35]
*30 io_in[36]
*31 io_in[37]
*32 io_in[3]
*33 io_in[4]
*34 io_in[5]
*35 io_in[6]
*36 io_in[7]
*37 io_in[8]
*38 io_in[9]
*39 io_oeb[0]
*40 io_oeb[10]
*41 io_oeb[11]
*42 io_oeb[12]
*43 io_oeb[13]
*44 io_oeb[14]
*45 io_oeb[15]
*46 io_oeb[16]
*47 io_oeb[17]
*48 io_oeb[18]
*49 io_oeb[19]
*50 io_oeb[1]
*51 io_oeb[20]
*52 io_oeb[21]
*53 io_oeb[22]
*54 io_oeb[23]
*55 io_oeb[24]
*56 io_oeb[25]
*57 io_oeb[26]
*58 io_oeb[27]
*59 io_oeb[28]
*60 io_oeb[29]
*61 io_oeb[2]
*62 io_oeb[30]
*63 io_oeb[31]
*64 io_oeb[32]
*65 io_oeb[33]
*66 io_oeb[34]
*67 io_oeb[35]
*68 io_oeb[36]
*69 io_oeb[37]
*70 io_oeb[3]
*71 io_oeb[4]
*72 io_oeb[5]
*73 io_oeb[6]
*74 io_oeb[7]
*75 io_oeb[8]
*76 io_oeb[9]
*77 io_out[0]
*78 io_out[10]
*79 io_out[11]
*80 io_out[12]
*81 io_out[13]
*82 io_out[14]
*83 io_out[15]
*84 io_out[16]
*85 io_out[17]
*86 io_out[18]
*87 io_out[19]
*88 io_out[1]
*89 io_out[20]
*90 io_out[21]
*91 io_out[22]
*92 io_out[23]
*93 io_out[24]
*94 io_out[25]
*95 io_out[26]
*96 io_out[27]
*97 io_out[28]
*98 io_out[29]
*99 io_out[2]
*100 io_out[30]
*101 io_out[31]
*102 io_out[32]
*103 io_out[33]
*104 io_out[34]
*105 io_out[35]
*106 io_out[36]
*107 io_out[37]
*108 io_out[3]
*109 io_out[4]
*110 io_out[5]
*111 io_out[6]
*112 io_out[7]
*113 io_out[8]
*114 io_out[9]
*115 la_data_in[0]
*116 la_data_in[10]
*117 la_data_in[11]
*118 la_data_in[12]
*119 la_data_in[13]
*120 la_data_in[14]
*121 la_data_in[15]
*122 la_data_in[16]
*123 la_data_in[17]
*124 la_data_in[18]
*125 la_data_in[19]
*126 la_data_in[1]
*127 la_data_in[20]
*128 la_data_in[21]
*129 la_data_in[22]
*130 la_data_in[23]
*131 la_data_in[24]
*132 la_data_in[25]
*133 la_data_in[26]
*134 la_data_in[27]
*135 la_data_in[28]
*136 la_data_in[29]
*137 la_data_in[2]
*138 la_data_in[30]
*139 la_data_in[31]
*140 la_data_in[32]
*141 la_data_in[33]
*142 la_data_in[34]
*143 la_data_in[35]
*144 la_data_in[36]
*145 la_data_in[37]
*146 la_data_in[38]
*147 la_data_in[39]
*148 la_data_in[3]
*149 la_data_in[40]
*150 la_data_in[41]
*151 la_data_in[42]
*152 la_data_in[43]
*153 la_data_in[44]
*154 la_data_in[45]
*155 la_data_in[46]
*156 la_data_in[47]
*157 la_data_in[48]
*158 la_data_in[49]
*159 la_data_in[4]
*160 la_data_in[50]
*161 la_data_in[51]
*162 la_data_in[52]
*163 la_data_in[53]
*164 la_data_in[54]
*165 la_data_in[55]
*166 la_data_in[56]
*167 la_data_in[57]
*168 la_data_in[58]
*169 la_data_in[59]
*170 la_data_in[5]
*171 la_data_in[60]
*172 la_data_in[61]
*173 la_data_in[62]
*174 la_data_in[63]
*175 la_data_in[6]
*176 la_data_in[7]
*177 la_data_in[8]
*178 la_data_in[9]
*179 la_data_out[0]
*180 la_data_out[10]
*181 la_data_out[11]
*182 la_data_out[12]
*183 la_data_out[13]
*184 la_data_out[14]
*185 la_data_out[15]
*186 la_data_out[16]
*187 la_data_out[17]
*188 la_data_out[18]
*189 la_data_out[19]
*190 la_data_out[1]
*191 la_data_out[20]
*192 la_data_out[21]
*193 la_data_out[22]
*194 la_data_out[23]
*195 la_data_out[24]
*196 la_data_out[25]
*197 la_data_out[26]
*198 la_data_out[27]
*199 la_data_out[28]
*200 la_data_out[29]
*201 la_data_out[2]
*202 la_data_out[30]
*203 la_data_out[31]
*204 la_data_out[32]
*205 la_data_out[33]
*206 la_data_out[34]
*207 la_data_out[35]
*208 la_data_out[36]
*209 la_data_out[37]
*210 la_data_out[38]
*211 la_data_out[39]
*212 la_data_out[3]
*213 la_data_out[40]
*214 la_data_out[41]
*215 la_data_out[42]
*216 la_data_out[43]
*217 la_data_out[44]
*218 la_data_out[45]
*219 la_data_out[46]
*220 la_data_out[47]
*221 la_data_out[48]
*222 la_data_out[49]
*223 la_data_out[4]
*224 la_data_out[50]
*225 la_data_out[51]
*226 la_data_out[52]
*227 la_data_out[53]
*228 la_data_out[54]
*229 la_data_out[55]
*230 la_data_out[56]
*231 la_data_out[57]
*232 la_data_out[58]
*233 la_data_out[59]
*234 la_data_out[5]
*235 la_data_out[60]
*236 la_data_out[61]
*237 la_data_out[62]
*238 la_data_out[63]
*239 la_data_out[6]
*240 la_data_out[7]
*241 la_data_out[8]
*242 la_data_out[9]
*243 la_oenb[0]
*244 la_oenb[10]
*245 la_oenb[11]
*246 la_oenb[12]
*247 la_oenb[13]
*248 la_oenb[14]
*249 la_oenb[15]
*250 la_oenb[16]
*251 la_oenb[17]
*252 la_oenb[18]
*253 la_oenb[19]
*254 la_oenb[1]
*255 la_oenb[20]
*256 la_oenb[21]
*257 la_oenb[22]
*258 la_oenb[23]
*259 la_oenb[24]
*260 la_oenb[25]
*261 la_oenb[26]
*262 la_oenb[27]
*263 la_oenb[28]
*264 la_oenb[29]
*265 la_oenb[2]
*266 la_oenb[30]
*267 la_oenb[31]
*268 la_oenb[32]
*269 la_oenb[33]
*270 la_oenb[34]
*271 la_oenb[35]
*272 la_oenb[36]
*273 la_oenb[37]
*274 la_oenb[38]
*275 la_oenb[39]
*276 la_oenb[3]
*277 la_oenb[40]
*278 la_oenb[41]
*279 la_oenb[42]
*280 la_oenb[43]
*281 la_oenb[44]
*282 la_oenb[45]
*283 la_oenb[46]
*284 la_oenb[47]
*285 la_oenb[48]
*286 la_oenb[49]
*287 la_oenb[4]
*288 la_oenb[50]
*289 la_oenb[51]
*290 la_oenb[52]
*291 la_oenb[53]
*292 la_oenb[54]
*293 la_oenb[55]
*294 la_oenb[56]
*295 la_oenb[57]
*296 la_oenb[58]
*297 la_oenb[59]
*298 la_oenb[5]
*299 la_oenb[60]
*300 la_oenb[61]
*301 la_oenb[62]
*302 la_oenb[63]
*303 la_oenb[6]
*304 la_oenb[7]
*305 la_oenb[8]
*306 la_oenb[9]
*307 user_clock2
*308 user_irq[0]
*309 user_irq[1]
*310 user_irq[2]
*313 wb_clk_i
*314 wb_rst_i
*315 wbs_ack_o
*316 wbs_adr_i[0]
*317 wbs_adr_i[10]
*318 wbs_adr_i[11]
*319 wbs_adr_i[12]
*320 wbs_adr_i[13]
*321 wbs_adr_i[14]
*322 wbs_adr_i[15]
*323 wbs_adr_i[16]
*324 wbs_adr_i[17]
*325 wbs_adr_i[18]
*326 wbs_adr_i[19]
*327 wbs_adr_i[1]
*328 wbs_adr_i[20]
*329 wbs_adr_i[21]
*330 wbs_adr_i[22]
*331 wbs_adr_i[23]
*332 wbs_adr_i[24]
*333 wbs_adr_i[25]
*334 wbs_adr_i[26]
*335 wbs_adr_i[27]
*336 wbs_adr_i[28]
*337 wbs_adr_i[29]
*338 wbs_adr_i[2]
*339 wbs_adr_i[30]
*340 wbs_adr_i[31]
*341 wbs_adr_i[3]
*342 wbs_adr_i[4]
*343 wbs_adr_i[5]
*344 wbs_adr_i[6]
*345 wbs_adr_i[7]
*346 wbs_adr_i[8]
*347 wbs_adr_i[9]
*348 wbs_cyc_i
*349 wbs_dat_i[0]
*350 wbs_dat_i[10]
*351 wbs_dat_i[11]
*352 wbs_dat_i[12]
*353 wbs_dat_i[13]
*354 wbs_dat_i[14]
*355 wbs_dat_i[15]
*356 wbs_dat_i[16]
*357 wbs_dat_i[17]
*358 wbs_dat_i[18]
*359 wbs_dat_i[19]
*360 wbs_dat_i[1]
*361 wbs_dat_i[20]
*362 wbs_dat_i[21]
*363 wbs_dat_i[22]
*364 wbs_dat_i[23]
*365 wbs_dat_i[24]
*366 wbs_dat_i[25]
*367 wbs_dat_i[26]
*368 wbs_dat_i[27]
*369 wbs_dat_i[28]
*370 wbs_dat_i[29]
*371 wbs_dat_i[2]
*372 wbs_dat_i[30]
*373 wbs_dat_i[31]
*374 wbs_dat_i[3]
*375 wbs_dat_i[4]
*376 wbs_dat_i[5]
*377 wbs_dat_i[6]
*378 wbs_dat_i[7]
*379 wbs_dat_i[8]
*380 wbs_dat_i[9]
*381 wbs_dat_o[0]
*382 wbs_dat_o[10]
*383 wbs_dat_o[11]
*384 wbs_dat_o[12]
*385 wbs_dat_o[13]
*386 wbs_dat_o[14]
*387 wbs_dat_o[15]
*388 wbs_dat_o[16]
*389 wbs_dat_o[17]
*390 wbs_dat_o[18]
*391 wbs_dat_o[19]
*392 wbs_dat_o[1]
*393 wbs_dat_o[20]
*394 wbs_dat_o[21]
*395 wbs_dat_o[22]
*396 wbs_dat_o[23]
*397 wbs_dat_o[24]
*398 wbs_dat_o[25]
*399 wbs_dat_o[26]
*400 wbs_dat_o[27]
*401 wbs_dat_o[28]
*402 wbs_dat_o[29]
*403 wbs_dat_o[2]
*404 wbs_dat_o[30]
*405 wbs_dat_o[31]
*406 wbs_dat_o[3]
*407 wbs_dat_o[4]
*408 wbs_dat_o[5]
*409 wbs_dat_o[6]
*410 wbs_dat_o[7]
*411 wbs_dat_o[8]
*412 wbs_dat_o[9]
*413 wbs_sel_i[0]
*414 wbs_sel_i[1]
*415 wbs_sel_i[2]
*416 wbs_sel_i[3]
*417 wbs_stb_i
*418 wbs_we_i
*419 DigitalClock
*420 anan_logo

*PORTS
io_in[0] I
io_in[10] I
io_in[11] I
io_in[12] I
io_in[13] I
io_in[14] I
io_in[15] I
io_in[16] I
io_in[17] I
io_in[18] I
io_in[19] I
io_in[1] I
io_in[20] I
io_in[21] I
io_in[22] I
io_in[23] I
io_in[24] I
io_in[25] I
io_in[26] I
io_in[27] I
io_in[28] I
io_in[29] I
io_in[2] I
io_in[30] I
io_in[31] I
io_in[32] I
io_in[33] I
io_in[34] I
io_in[35] I
io_in[36] I
io_in[37] I
io_in[3] I
io_in[4] I
io_in[5] I
io_in[6] I
io_in[7] I
io_in[8] I
io_in[9] I
io_oeb[0] O
io_oeb[10] O
io_oeb[11] O
io_oeb[12] O
io_oeb[13] O
io_oeb[14] O
io_oeb[15] O
io_oeb[16] O
io_oeb[17] O
io_oeb[18] O
io_oeb[19] O
io_oeb[1] O
io_oeb[20] O
io_oeb[21] O
io_oeb[22] O
io_oeb[23] O
io_oeb[24] O
io_oeb[25] O
io_oeb[26] O
io_oeb[27] O
io_oeb[28] O
io_oeb[29] O
io_oeb[2] O
io_oeb[30] O
io_oeb[31] O
io_oeb[32] O
io_oeb[33] O
io_oeb[34] O
io_oeb[35] O
io_oeb[36] O
io_oeb[37] O
io_oeb[3] O
io_oeb[4] O
io_oeb[5] O
io_oeb[6] O
io_oeb[7] O
io_oeb[8] O
io_oeb[9] O
io_out[0] O
io_out[10] O
io_out[11] O
io_out[12] O
io_out[13] O
io_out[14] O
io_out[15] O
io_out[16] O
io_out[17] O
io_out[18] O
io_out[19] O
io_out[1] O
io_out[20] O
io_out[21] O
io_out[22] O
io_out[23] O
io_out[24] O
io_out[25] O
io_out[26] O
io_out[27] O
io_out[28] O
io_out[29] O
io_out[2] O
io_out[30] O
io_out[31] O
io_out[32] O
io_out[33] O
io_out[34] O
io_out[35] O
io_out[36] O
io_out[37] O
io_out[3] O
io_out[4] O
io_out[5] O
io_out[6] O
io_out[7] O
io_out[8] O
io_out[9] O
la_data_in[0] I
la_data_in[10] I
la_data_in[11] I
la_data_in[12] I
la_data_in[13] I
la_data_in[14] I
la_data_in[15] I
la_data_in[16] I
la_data_in[17] I
la_data_in[18] I
la_data_in[19] I
la_data_in[1] I
la_data_in[20] I
la_data_in[21] I
la_data_in[22] I
la_data_in[23] I
la_data_in[24] I
la_data_in[25] I
la_data_in[26] I
la_data_in[27] I
la_data_in[28] I
la_data_in[29] I
la_data_in[2] I
la_data_in[30] I
la_data_in[31] I
la_data_in[32] I
la_data_in[33] I
la_data_in[34] I
la_data_in[35] I
la_data_in[36] I
la_data_in[37] I
la_data_in[38] I
la_data_in[39] I
la_data_in[3] I
la_data_in[40] I
la_data_in[41] I
la_data_in[42] I
la_data_in[43] I
la_data_in[44] I
la_data_in[45] I
la_data_in[46] I
la_data_in[47] I
la_data_in[48] I
la_data_in[49] I
la_data_in[4] I
la_data_in[50] I
la_data_in[51] I
la_data_in[52] I
la_data_in[53] I
la_data_in[54] I
la_data_in[55] I
la_data_in[56] I
la_data_in[57] I
la_data_in[58] I
la_data_in[59] I
la_data_in[5] I
la_data_in[60] I
la_data_in[61] I
la_data_in[62] I
la_data_in[63] I
la_data_in[6] I
la_data_in[7] I
la_data_in[8] I
la_data_in[9] I
la_data_out[0] O
la_data_out[10] O
la_data_out[11] O
la_data_out[12] O
la_data_out[13] O
la_data_out[14] O
la_data_out[15] O
la_data_out[16] O
la_data_out[17] O
la_data_out[18] O
la_data_out[19] O
la_data_out[1] O
la_data_out[20] O
la_data_out[21] O
la_data_out[22] O
la_data_out[23] O
la_data_out[24] O
la_data_out[25] O
la_data_out[26] O
la_data_out[27] O
la_data_out[28] O
la_data_out[29] O
la_data_out[2] O
la_data_out[30] O
la_data_out[31] O
la_data_out[32] O
la_data_out[33] O
la_data_out[34] O
la_data_out[35] O
la_data_out[36] O
la_data_out[37] O
la_data_out[38] O
la_data_out[39] O
la_data_out[3] O
la_data_out[40] O
la_data_out[41] O
la_data_out[42] O
la_data_out[43] O
la_data_out[44] O
la_data_out[45] O
la_data_out[46] O
la_data_out[47] O
la_data_out[48] O
la_data_out[49] O
la_data_out[4] O
la_data_out[50] O
la_data_out[51] O
la_data_out[52] O
la_data_out[53] O
la_data_out[54] O
la_data_out[55] O
la_data_out[56] O
la_data_out[57] O
la_data_out[58] O
la_data_out[59] O
la_data_out[5] O
la_data_out[60] O
la_data_out[61] O
la_data_out[62] O
la_data_out[63] O
la_data_out[6] O
la_data_out[7] O
la_data_out[8] O
la_data_out[9] O
la_oenb[0] I
la_oenb[10] I
la_oenb[11] I
la_oenb[12] I
la_oenb[13] I
la_oenb[14] I
la_oenb[15] I
la_oenb[16] I
la_oenb[17] I
la_oenb[18] I
la_oenb[19] I
la_oenb[1] I
la_oenb[20] I
la_oenb[21] I
la_oenb[22] I
la_oenb[23] I
la_oenb[24] I
la_oenb[25] I
la_oenb[26] I
la_oenb[27] I
la_oenb[28] I
la_oenb[29] I
la_oenb[2] I
la_oenb[30] I
la_oenb[31] I
la_oenb[32] I
la_oenb[33] I
la_oenb[34] I
la_oenb[35] I
la_oenb[36] I
la_oenb[37] I
la_oenb[38] I
la_oenb[39] I
la_oenb[3] I
la_oenb[40] I
la_oenb[41] I
la_oenb[42] I
la_oenb[43] I
la_oenb[44] I
la_oenb[45] I
la_oenb[46] I
la_oenb[47] I
la_oenb[48] I
la_oenb[49] I
la_oenb[4] I
la_oenb[50] I
la_oenb[51] I
la_oenb[52] I
la_oenb[53] I
la_oenb[54] I
la_oenb[55] I
la_oenb[56] I
la_oenb[57] I
la_oenb[58] I
la_oenb[59] I
la_oenb[5] I
la_oenb[60] I
la_oenb[61] I
la_oenb[62] I
la_oenb[63] I
la_oenb[6] I
la_oenb[7] I
la_oenb[8] I
la_oenb[9] I
user_clock2 I
user_irq[0] O
user_irq[1] O
user_irq[2] O
wb_clk_i I
wb_rst_i I
wbs_ack_o O
wbs_adr_i[0] I
wbs_adr_i[10] I
wbs_adr_i[11] I
wbs_adr_i[12] I
wbs_adr_i[13] I
wbs_adr_i[14] I
wbs_adr_i[15] I
wbs_adr_i[16] I
wbs_adr_i[17] I
wbs_adr_i[18] I
wbs_adr_i[19] I
wbs_adr_i[1] I
wbs_adr_i[20] I
wbs_adr_i[21] I
wbs_adr_i[22] I
wbs_adr_i[23] I
wbs_adr_i[24] I
wbs_adr_i[25] I
wbs_adr_i[26] I
wbs_adr_i[27] I
wbs_adr_i[28] I
wbs_adr_i[29] I
wbs_adr_i[2] I
wbs_adr_i[30] I
wbs_adr_i[31] I
wbs_adr_i[3] I
wbs_adr_i[4] I
wbs_adr_i[5] I
wbs_adr_i[6] I
wbs_adr_i[7] I
wbs_adr_i[8] I
wbs_adr_i[9] I
wbs_cyc_i I
wbs_dat_i[0] I
wbs_dat_i[10] I
wbs_dat_i[11] I
wbs_dat_i[12] I
wbs_dat_i[13] I
wbs_dat_i[14] I
wbs_dat_i[15] I
wbs_dat_i[16] I
wbs_dat_i[17] I
wbs_dat_i[18] I
wbs_dat_i[19] I
wbs_dat_i[1] I
wbs_dat_i[20] I
wbs_dat_i[21] I
wbs_dat_i[22] I
wbs_dat_i[23] I
wbs_dat_i[24] I
wbs_dat_i[25] I
wbs_dat_i[26] I
wbs_dat_i[27] I
wbs_dat_i[28] I
wbs_dat_i[29] I
wbs_dat_i[2] I
wbs_dat_i[30] I
wbs_dat_i[31] I
wbs_dat_i[3] I
wbs_dat_i[4] I
wbs_dat_i[5] I
wbs_dat_i[6] I
wbs_dat_i[7] I
wbs_dat_i[8] I
wbs_dat_i[9] I
wbs_dat_o[0] O
wbs_dat_o[10] O
wbs_dat_o[11] O
wbs_dat_o[12] O
wbs_dat_o[13] O
wbs_dat_o[14] O
wbs_dat_o[15] O
wbs_dat_o[16] O
wbs_dat_o[17] O
wbs_dat_o[18] O
wbs_dat_o[19] O
wbs_dat_o[1] O
wbs_dat_o[20] O
wbs_dat_o[21] O
wbs_dat_o[22] O
wbs_dat_o[23] O
wbs_dat_o[24] O
wbs_dat_o[25] O
wbs_dat_o[26] O
wbs_dat_o[27] O
wbs_dat_o[28] O
wbs_dat_o[29] O
wbs_dat_o[2] O
wbs_dat_o[30] O
wbs_dat_o[31] O
wbs_dat_o[3] O
wbs_dat_o[4] O
wbs_dat_o[5] O
wbs_dat_o[6] O
wbs_dat_o[7] O
wbs_dat_o[8] O
wbs_dat_o[9] O
wbs_sel_i[0] I
wbs_sel_i[1] I
wbs_sel_i[2] I
wbs_sel_i[3] I
wbs_stb_i I
wbs_we_i I

*D_NET *39 0.245172
*CONN
*P io_oeb[0] O
*I *419:hours_oeb[0] O *D DigitalClock
*CAP
1 io_oeb[0] 0.0945121
2 *419:hours_oeb[0] 0.000730208
3 *39:11 0.0945121
4 *39:9 0.00301777
5 *39:7 0.00374797
6 *39:9 *77:9 0.031989
7 *39:9 *88:9 0.0166633
*RES
1 *419:hours_oeb[0] *39:7 10.485 
2 *39:7 *39:9 83.61 
3 *39:9 *39:11 4.5 
4 *39:11 io_oeb[0] 758.745 
*END

*D_NET *40 0.782335
*CONN
*P io_oeb[10] O
*I *419:minutes_oeb[4] O *D DigitalClock
*CAP
1 io_oeb[10] 0.00113196
2 *419:minutes_oeb[4] 0.048392
3 *40:9 0.00625669
4 *40:7 0.00512473
5 *40:5 0.048392
6 *40:5 io_out[3] 0.301579
7 *40:9 *42:9 0.0209321
8 *40:9 *43:9 0.178277
9 *40:9 *70:9 0.008533
10 *40:9 *71:9 0.000845849
11 *40:9 *76:9 0.16287
*RES
1 *419:minutes_oeb[4] *40:5 756.585 
2 *40:5 *40:7 4.5 
3 *40:7 *40:9 467.37 
4 *40:9 io_oeb[10] 12.645 
*END

*D_NET *41 0.478178
*CONN
*P io_oeb[11] O
*I *419:minutes_oeb[5] O *D DigitalClock
*CAP
1 io_oeb[11] 0.00104771
2 *419:minutes_oeb[5] 0.0943879
3 *41:9 0.0353722
4 *41:7 0.0343244
5 *41:5 0.0943879
6 *41:9 *75:9 0.0150215
7 *41:9 *80:9 0.203637
*RES
1 *419:minutes_oeb[5] *41:5 756.945 
2 *41:5 *41:7 4.5 
3 *41:7 *41:9 522.27 
4 *41:9 io_oeb[11] 12.285 
*END

*D_NET *42 0.656943
*CONN
*P io_oeb[12] O
*I *419:seconds_oeb[0] O *D DigitalClock
*CAP
1 io_oeb[12] 0.00109087
2 *419:seconds_oeb[0] 0.0943109
3 *42:9 0.00387195
4 *42:7 0.00278108
5 *42:5 0.0943109
6 *42:9 *43:9 0.000743522
7 *42:9 *44:9 0.22024
8 *42:9 *80:9 0.218662
9 *40:9 *42:9 0.0209321
*RES
1 *419:seconds_oeb[0] *42:5 756.585 
2 *42:5 *42:7 4.5 
3 *42:7 *42:9 577.35 
4 *42:9 io_oeb[12] 12.645 
*END

*D_NET *43 0.545793
*CONN
*P io_oeb[13] O
*I *419:seconds_oeb[1] O *D DigitalClock
*CAP
1 io_oeb[13] 0.00111921
2 *419:seconds_oeb[1] 0.0942824
3 *43:9 0.0485318
4 *43:7 0.0474126
5 *43:5 0.0942824
6 *43:9 *44:9 0.0559485
7 *43:9 *71:9 0.0237814
8 *43:9 *80:9 0.00141359
9 *40:9 *43:9 0.178277
10 *42:9 *43:9 0.000743522
*RES
1 *419:seconds_oeb[1] *43:5 756.405 
2 *43:5 *43:7 4.5 
3 *43:7 *43:9 632.43 
4 *43:9 io_oeb[13] 12.825 
*END

*D_NET *44 0.573045
*CONN
*P io_oeb[14] O
*I *419:seconds_oeb[2] O *D DigitalClock
*CAP
1 io_oeb[14] 0.00111245
2 *419:seconds_oeb[2] 0.0943062
3 *44:9 0.0541223
4 *44:7 0.0530099
5 *44:5 0.0943062
6 *42:9 *44:9 0.22024
7 *43:9 *44:9 0.0559485
*RES
1 *419:seconds_oeb[2] *44:5 756.405 
2 *44:5 *44:7 4.5 
3 *44:7 *44:9 687.51 
4 *44:9 io_oeb[14] 12.825 
*END

*D_NET *45 0.389501
*CONN
*P io_oeb[15] O
*I *419:seconds_oeb[3] O *D DigitalClock
*CAP
1 io_oeb[15] 0.0894917
2 *419:seconds_oeb[3] 0.105259
3 *45:7 0.0894917
4 *45:5 0.105259
*RES
1 *419:seconds_oeb[3] *45:5 676.125 
2 *45:5 *45:7 4.5 
3 *45:7 io_oeb[15] 690.165 
*END

*D_NET *46 0.319118
*CONN
*P io_oeb[16] O
*I *419:seconds_oeb[4] O *D DigitalClock
*CAP
1 io_oeb[16] 0.0883986
2 *419:seconds_oeb[4] 0.0711606
3 *46:7 0.0883986
4 *46:5 0.0711606
*RES
1 *419:seconds_oeb[4] *46:5 569.745 
2 *46:5 *46:7 4.5 
3 *46:7 io_oeb[16] 681.525 
*END

*D_NET *47 0.290342
*CONN
*P io_oeb[17] O
*I *419:seconds_oeb[5] O *D DigitalClock
*CAP
1 io_oeb[17] 0.0872837
2 *419:seconds_oeb[5] 0.0578874
3 *47:7 0.0872837
4 *47:5 0.0578874
*RES
1 *419:seconds_oeb[5] *47:5 463.545 
2 *47:5 *47:7 4.5 
3 *47:7 io_oeb[17] 672.885 
*END

*D_NET *50 0.204436
*CONN
*P io_oeb[1] O
*I *419:hours_oeb[1] O *D DigitalClock
*CAP
1 io_oeb[1] 0.094469
2 *419:hours_oeb[1] 0.00283717
3 *50:11 0.0973061
4 *50:11 *88:9 0.00982394
*RES
1 *419:hours_oeb[1] *50:11 44.055 
2 *50:11 io_oeb[1] 758.385 
*END

*D_NET *61 0.239816
*CONN
*P io_oeb[2] O
*I *419:hours_oeb[2] O *D DigitalClock
*CAP
1 io_oeb[2] 0.0756093
2 *419:hours_oeb[2] 0.0021655
3 *61:11 0.0777748
4 io_oeb[2] *72:5 0.0739665
5 *61:11 *108:9 0.00888754
6 *61:11 *109:9 0.000836927
7 *61:11 *110:9 0.000575165
*RES
1 *419:hours_oeb[2] *61:11 41.535 
2 *61:11 io_oeb[2] 758.745 
*END

*D_NET *70 0.238678
*CONN
*P io_oeb[3] O
*I *419:hours_oeb[3] O *D DigitalClock
*CAP
1 io_oeb[3] 0.00125849
2 *419:hours_oeb[3] 0.0941639
3 *70:9 0.00423156
4 *70:7 0.00297307
5 *70:5 0.0941639
6 *70:9 *71:9 0.0293608
7 *70:9 *72:9 0
8 *70:9 *73:9 0.000128248
9 *70:9 *74:9 0.000846019
10 *70:9 *75:9 0.00109511
11 *70:9 *76:9 0.00158069
12 *70:9 *112:9 0.000343273
13 *40:9 *70:9 0.008533
*RES
1 *419:hours_oeb[3] *70:5 756.405 
2 *70:5 *70:7 4.5 
3 *70:7 *70:9 81.63 
4 *70:9 io_oeb[3] 12.825 
*END

*D_NET *71 0.26257
*CONN
*P io_oeb[4] O
*I *419:hours_oeb[4] O *D DigitalClock
*CAP
1 io_oeb[4] 0.00130626
2 *419:hours_oeb[4] 0.0941592
3 *71:9 0.0101316
4 *71:7 0.00882537
5 *71:5 0.0941592
6 *40:9 *71:9 0.000845849
7 *43:9 *71:9 0.0237814
8 *70:9 *71:9 0.0293608
*RES
1 *419:hours_oeb[4] *71:5 756.225 
2 *71:5 *71:7 4.5 
3 *71:7 *71:9 136.71 
4 *71:9 io_oeb[4] 13.005 
*END

*D_NET *72 0.349489
*CONN
*P io_oeb[5] O
*I *419:hours_oeb[5] O *D DigitalClock
*CAP
1 io_oeb[5] 0.000961214
2 *419:hours_oeb[5] 0.0872364
3 *72:9 0.0135332
4 *72:7 0.012572
5 *72:5 0.0872364
6 *72:9 *73:9 0.0739829
7 io_oeb[2] *72:5 0.0739665
8 *70:9 *72:9 0
*RES
1 *419:hours_oeb[5] *72:5 757.665 
2 *72:5 *72:7 4.5 
3 *72:7 *72:9 191.97 
4 *72:9 io_oeb[5] 11.565 
*END

*D_NET *73 0.419138
*CONN
*P io_oeb[6] O
*I *419:minutes_oeb[0] O *D DigitalClock
*CAP
1 io_oeb[6] 0.000982793
2 *419:minutes_oeb[0] 0.117852
3 *73:9 0.00567924
4 *73:7 0.00469645
5 *73:5 0.117852
6 *73:9 *112:9 0.0979634
7 *70:9 *73:9 0.000128248
8 *72:9 *73:9 0.0739829
*RES
1 *419:minutes_oeb[0] *73:5 757.485 
2 *73:5 *73:7 4.5 
3 *73:7 *73:9 246.87 
4 *73:9 io_oeb[6] 11.745 
*END

*D_NET *74 0.427791
*CONN
*P io_oeb[7] O
*I *419:minutes_oeb[1] O *D DigitalClock
*CAP
1 io_oeb[7] 0.00102595
2 *419:minutes_oeb[1] 0.0943179
3 *74:9 0.00329699
4 *74:7 0.00227104
5 *74:5 0.0943179
6 *74:9 *75:9 0.118366
7 *74:9 *112:9 0.113349
8 *70:9 *74:9 0.000846019
*RES
1 *419:minutes_oeb[1] *74:5 757.125 
2 *74:5 *74:7 4.5 
3 *74:7 *74:9 301.95 
4 *74:9 io_oeb[7] 12.105 
*END

*D_NET *75 0.475674
*CONN
*P io_oeb[8] O
*I *419:minutes_oeb[2] O *D DigitalClock
*CAP
1 io_oeb[8] 0.00105447
2 *419:minutes_oeb[2] 0.0943132
3 *75:9 0.00596096
4 *75:7 0.00490648
5 *75:5 0.0943132
6 *75:9 *76:9 0.140642
7 *41:9 *75:9 0.0150215
8 *70:9 *75:9 0.00109511
9 *74:9 *75:9 0.118366
*RES
1 *419:minutes_oeb[2] *75:5 756.945 
2 *75:5 *75:7 4.5 
3 *75:7 *75:9 357.03 
4 *75:9 io_oeb[8] 12.285 
*END

*D_NET *76 0.523668
*CONN
*P io_oeb[9] O
*I *419:minutes_oeb[3] O *D DigitalClock
*CAP
1 io_oeb[9] 0.00109321
2 *419:minutes_oeb[3] 0.0943086
3 *76:9 0.00613631
4 *76:7 0.0050431
5 *76:5 0.0943086
6 *76:9 *80:9 0.0176853
7 *40:9 *76:9 0.16287
8 *70:9 *76:9 0.00158069
9 *75:9 *76:9 0.140642
*RES
1 *419:minutes_oeb[3] *76:5 756.765 
2 *76:5 *76:7 4.5 
3 *76:7 *76:9 412.11 
4 *76:9 io_oeb[9] 12.465 
*END

*D_NET *77 0.237809
*CONN
*P io_out[0] O
*I *419:hours[0] O *D DigitalClock
*CAP
1 io_out[0] 0.0945337
2 *419:hours[0] 0.000708628
3 *77:11 0.0945337
4 *77:9 0.00766746
5 *77:7 0.00837609
6 *39:9 *77:9 0.031989
*RES
1 *419:hours[0] *77:7 10.305 
2 *77:7 *77:9 100.71 
3 *77:9 *77:11 4.5 
4 *77:11 io_out[0] 758.925 
*END

*D_NET *78 0.537584
*CONN
*P io_out[10] O
*I *419:minutes[4] O *D DigitalClock
*CAP
1 io_out[10] 0.0947356
2 *419:minutes[4] 0.000747134
3 *78:11 0.0947356
4 *78:9 0.00528556
5 *78:7 0.00603269
6 *78:9 *79:9 0.178298
7 *78:9 *108:9 0.00171187
8 *78:9 *114:9 0.156038
*RES
1 *419:minutes[4] *78:7 10.485 
2 *78:7 *78:9 450.27 
3 *78:9 *78:11 4.5 
4 *78:11 io_out[10] 758.745 
*END

*D_NET *79 0.440257
*CONN
*P io_out[11] O
*I *419:minutes[5] O *D DigitalClock
*CAP
1 io_out[11] 0.0947481
2 *419:minutes[5] 0.000708628
3 *79:11 0.0947481
4 *79:9 0.0355226
5 *79:7 0.0362312
6 *78:9 *79:9 0.178298
*RES
1 *419:minutes[5] *79:7 10.305 
2 *79:7 *79:9 505.35 
3 *79:9 *79:11 4.5 
4 *79:11 io_out[11] 758.925 
*END

*D_NET *80 0.639334
*CONN
*P io_out[12] O
*I *419:seconds[0] O *D DigitalClock
*CAP
1 io_out[12] 0.00129108
2 *419:seconds[0] 0.0943494
3 *80:9 0.00461884
4 *80:7 0.00332775
5 *80:5 0.0943494
6 *41:9 *80:9 0.203637
7 *42:9 *80:9 0.218662
8 *43:9 *80:9 0.00141359
9 *76:9 *80:9 0.0176853
*RES
1 *419:seconds[0] *80:5 756.765 
2 *80:5 *80:7 4.5 
3 *80:7 *80:9 560.43 
4 *80:9 io_out[12] 12.465 
*END

*D_NET *81 0.342159
*CONN
*P io_out[13] O
*I *419:seconds[1] O *D DigitalClock
*CAP
1 io_out[13] 0.0580605
2 *419:seconds[1] 0.0374463
3 *81:11 0.0580605
4 *81:9 0.0755725
5 *81:7 0.0755725
6 *81:5 0.0374463
*RES
1 *419:seconds[1] *81:5 300.105 
2 *81:5 *81:7 4.5 
3 *81:7 *81:9 615.51 
4 *81:9 *81:11 4.5 
5 *81:11 io_out[13] 464.625 
*END

*D_NET *82 0.355394
*CONN
*P io_out[14] O
*I *419:seconds[2] O *D DigitalClock
*CAP
1 io_out[14] 0.0577109
2 *419:seconds[2] 0.0377869
3 *82:11 0.0577109
4 *82:9 0.0821992
5 *82:7 0.0821992
6 *82:5 0.0377869
*RES
1 *419:seconds[2] *82:5 302.805 
2 *82:5 *82:7 4.5 
3 *82:7 *82:9 670.59 
4 *82:9 *82:11 4.5 
5 *82:11 io_out[14] 461.925 
*END

*D_NET *83 0.441698
*CONN
*P io_out[15] O
*I *419:seconds[3] O *D DigitalClock
*CAP
1 io_out[15] 0.00135906
2 *419:seconds[3] 0.0381277
3 *83:13 0.0339651
4 *83:11 0.032606
5 *83:9 0.0890803
6 *83:7 0.0890803
7 *83:5 0.0381277
8 *83:13 *84:13 0.119352
*RES
1 *419:seconds[3] *83:5 305.505 
2 *83:5 *83:7 4.5 
3 *83:7 *83:9 686.25 
4 *83:9 *83:11 4.5 
5 *83:11 *83:13 406.17 
6 *83:13 io_out[15] 12.825 
*END

*D_NET *84 0.463922
*CONN
*P io_out[16] O
*I *419:seconds[4] O *D DigitalClock
*CAP
1 io_out[16] 0.0010524
2 *419:seconds[4] 0.0384685
3 *84:13 0.00860456
4 *84:11 0.00755216
5 *84:9 0.0879653
6 *84:7 0.0879653
7 *84:5 0.0384685
8 *84:13 *85:13 0.0744938
9 *83:13 *84:13 0.119352
*RES
1 *419:seconds[4] *84:5 308.205 
2 *84:5 *84:7 4.5 
3 *84:7 *84:9 677.79 
4 *84:9 *84:11 4.5 
5 *84:11 *84:13 297.09 
6 *84:13 io_out[16] 12.645 
*END

*D_NET *85 0.352127
*CONN
*P io_out[17] O
*I *419:seconds[5] O *D DigitalClock
*CAP
1 io_out[17] 0.0010294
2 *419:seconds[5] 0.0392346
3 *85:13 0.0127403
4 *85:11 0.0117109
5 *85:9 0.0868415
6 *85:7 0.0868415
7 *85:5 0.0392346
8 *84:13 *85:13 0.0744938
*RES
1 *419:seconds[5] *85:5 313.605 
2 *85:5 *85:7 4.5 
3 *85:7 *85:9 669.33 
4 *85:9 *85:11 4.5 
5 *85:11 *85:13 185.31 
6 *85:13 io_out[17] 12.465 
*END

*D_NET *88 0.220257
*CONN
*P io_out[1] O
*I *419:hours[1] O *D DigitalClock
*CAP
1 io_out[1] 0.0944905
2 *419:hours[1] 0.000751787
3 *88:11 0.0944905
4 *88:9 0.00164265
5 *88:7 0.00239444
6 *39:9 *88:9 0.0166633
7 *50:11 *88:9 0.00982394
*RES
1 *419:hours[1] *88:7 10.665 
2 *88:7 *88:9 45.63 
3 *88:9 *88:11 4.5 
4 *88:11 io_out[1] 758.565 
*END

*D_NET *99 0.19292
*CONN
*P io_out[2] O
*I *419:hours[2] O *D DigitalClock
*CAP
1 io_out[2] 0.00233003
2 *419:hours[2] 0.0941301
3 *99:5 0.0964601
*RES
1 *419:hours[2] *99:5 756.405 
2 *99:5 io_out[2] 26.955 
*END

*D_NET *108 0.426014
*CONN
*P io_out[3] O
*I *419:hours[3] O *D DigitalClock
*CAP
1 io_out[3] 0.0488756
2 *419:hours[3] 0.000708628
3 *108:11 0.0488756
4 *108:9 0.00470708
5 *108:7 0.0054157
6 *108:9 *110:9 0.000362929
7 *108:9 *111:9 0.00330906
8 *108:9 *114:9 0.0015807
9 *40:5 io_out[3] 0.301579
10 *61:11 *108:9 0.00888754
11 *78:9 *108:9 0.00171187
*RES
1 *419:hours[3] *108:7 10.305 
2 *108:7 *108:9 64.71 
3 *108:9 *108:11 4.5 
4 *108:11 io_out[3] 758.925 
*END

*D_NET *109 0.252567
*CONN
*P io_out[4] O
*I *419:hours[4] O *D DigitalClock
*CAP
1 io_out[4] 0.0947688
2 *419:hours[4] 0.000850363
3 *109:11 0.0947688
4 *109:9 0.00793262
5 *109:7 0.00878298
6 *109:9 *110:9 0.0446267
7 *109:9 *113:9 0
8 *61:11 *109:9 0.000836927
*RES
1 *419:hours[4] *109:7 11.205 
2 *109:7 *109:9 119.79 
3 *109:9 *109:11 4.5 
4 *109:11 io_out[4] 758.025 
*END

*D_NET *110 0.312883
*CONN
*P io_out[5] O
*I *419:hours[5] O *D DigitalClock
*CAP
1 io_out[5] 0.0947735
2 *419:hours[5] 0.000828784
3 *110:11 0.0947735
4 *110:9 0.00458421
5 *110:7 0.00541299
6 *110:9 *111:9 0.0669455
7 *61:11 *110:9 0.000575165
8 *108:9 *110:9 0.000362929
9 *109:9 *110:9 0.0446267
*RES
1 *419:hours[5] *110:7 11.025 
2 *110:7 *110:9 174.87 
3 *110:9 *110:11 4.5 
4 *110:11 io_out[5] 758.205 
*END

*D_NET *111 0.353447
*CONN
*P io_out[6] O
*I *419:minutes[0] O *D DigitalClock
*CAP
1 io_out[6] 0.0947781
2 *419:minutes[0] 0.000790278
3 *111:11 0.0947781
4 *111:9 0.00490271
5 *111:7 0.00569299
6 *111:9 *114:9 0.0822501
7 *108:9 *111:9 0.00330906
8 *110:9 *111:9 0.0669455
*RES
1 *419:minutes[0] *111:7 10.845 
2 *111:7 *111:9 229.95 
3 *111:9 *111:11 4.5 
4 *111:11 io_out[6] 758.385 
*END

*D_NET *112 0.409564
*CONN
*P io_out[7] O
*I *419:minutes[1] O *D DigitalClock
*CAP
1 io_out[7] 0.00120706
2 *419:minutes[1] 0.0943395
3 *112:9 0.0046147
4 *112:7 0.00340764
5 *112:5 0.0943395
6 *70:9 *112:9 0.000343273
7 *73:9 *112:9 0.0979634
8 *74:9 *112:9 0.113349
*RES
1 *419:minutes[1] *112:5 757.305 
2 *112:5 *112:7 4.5 
3 *112:7 *112:9 285.03 
4 *112:9 io_out[7] 11.925 
*END

*D_NET *113 0.275069
*CONN
*P io_out[8] O
*I *419:minutes[2] O *D DigitalClock
*CAP
1 io_out[8] 0.0944515
2 *419:minutes[2] 0.00109999
3 *113:11 0.0944515
4 *113:9 0.0419829
5 *113:7 0.0430829
6 *109:9 *113:9 0
*RES
1 *419:minutes[2] *113:7 13.005 
2 *113:7 *113:9 340.11 
3 *113:9 *113:11 4.5 
4 *113:11 io_out[8] 756.225 
*END

*D_NET *114 0.456063
*CONN
*P io_out[9] O
*I *419:minutes[3] O *D DigitalClock
*CAP
1 io_out[9] 0.094723
2 *419:minutes[3] 0.000768698
3 *114:11 0.094723
4 *114:9 0.0126056
5 *114:7 0.0133743
6 *78:9 *114:9 0.156038
7 *108:9 *114:9 0.0015807
8 *111:9 *114:9 0.0822501
*RES
1 *419:minutes[3] *114:7 10.665 
2 *114:7 *114:9 395.19 
3 *114:9 *114:11 4.5 
4 *114:11 io_out[9] 758.565 
*END

*D_NET *313 0.141882
*CONN
*P wb_clk_i I
*I *419:clk I *D DigitalClock
*CAP
1 wb_clk_i 0.0376873
2 *419:clk 0.000339622
3 *313:9 0.00847346
4 *313:7 0.00813384
5 *313:5 0.0376873
6 *313:9 *314:9 0.0495602
*RES
1 wb_clk_i *313:5 291.105 
2 *313:5 *313:7 4.5 
3 *313:7 *313:9 126.27 
4 *313:9 *419:clk 7.065 
*END

*D_NET *314 0.149339
*CONN
*P wb_rst_i I
*I *419:reset I *D DigitalClock
*CAP
1 wb_rst_i 0.0377262
2 *419:reset 0.000362615
3 *314:9 0.0121631
4 *314:7 0.0118005
5 *314:5 0.0377262
6 *313:9 *314:9 0.0495602
*RES
1 wb_rst_i *314:5 291.285 
2 *314:5 *314:7 4.5 
3 *314:7 *314:9 155.25 
4 *314:9 *419:reset 7.245 
*END
