*SPEF "ieee 1481-1999"
*DESIGN "user_proj_example"
*DATE "11:11:11 Fri 11 11, 1111"
*VENDOR "OpenRCX"
*PROGRAM "Parallel Extraction"
*VERSION "1.0"
*DESIGN_FLOW "NAME_SCOPE LOCAL" "PIN_CAP NONE"
*DIVIDER /
*DELIMITER :
*BUS_DELIMITER []
*T_UNIT 1 NS
*C_UNIT 1 PF
*R_UNIT 1 OHM
*L_UNIT 1 HENRY

*NAME_MAP
*1 io_in[0]
*2 io_in[10]
*3 io_in[11]
*4 io_in[12]
*5 io_in[13]
*6 io_in[14]
*7 io_in[15]
*8 io_in[1]
*9 io_in[2]
*10 io_in[3]
*11 io_in[4]
*12 io_in[5]
*13 io_in[6]
*14 io_in[7]
*15 io_in[8]
*16 io_in[9]
*17 io_oeb[0]
*18 io_oeb[10]
*19 io_oeb[11]
*20 io_oeb[12]
*21 io_oeb[13]
*22 io_oeb[14]
*23 io_oeb[15]
*24 io_oeb[1]
*25 io_oeb[2]
*26 io_oeb[3]
*27 io_oeb[4]
*28 io_oeb[5]
*29 io_oeb[6]
*30 io_oeb[7]
*31 io_oeb[8]
*32 io_oeb[9]
*33 io_out[0]
*34 io_out[10]
*35 io_out[11]
*36 io_out[12]
*37 io_out[13]
*38 io_out[14]
*39 io_out[15]
*40 io_out[1]
*41 io_out[2]
*42 io_out[3]
*43 io_out[4]
*44 io_out[5]
*45 io_out[6]
*46 io_out[7]
*47 io_out[8]
*48 io_out[9]
*49 net199
*50 net200
*51 net201
*52 la_data_in[0]
*53 la_data_in[10]
*54 la_data_in[11]
*55 la_data_in[12]
*56 la_data_in[13]
*57 la_data_in[14]
*58 la_data_in[15]
*59 la_data_in[16]
*60 la_data_in[17]
*61 la_data_in[18]
*62 la_data_in[19]
*63 la_data_in[1]
*64 la_data_in[20]
*65 la_data_in[21]
*66 la_data_in[22]
*67 la_data_in[23]
*68 la_data_in[24]
*69 la_data_in[25]
*70 la_data_in[26]
*71 la_data_in[27]
*72 la_data_in[28]
*73 la_data_in[29]
*74 la_data_in[2]
*75 la_data_in[30]
*76 la_data_in[31]
*77 la_data_in[32]
*78 la_data_in[33]
*79 la_data_in[34]
*80 la_data_in[35]
*81 la_data_in[36]
*82 la_data_in[37]
*83 la_data_in[38]
*84 la_data_in[39]
*85 la_data_in[3]
*86 la_data_in[40]
*87 la_data_in[41]
*88 la_data_in[42]
*89 la_data_in[43]
*90 la_data_in[44]
*91 la_data_in[45]
*92 la_data_in[46]
*93 la_data_in[47]
*94 la_data_in[48]
*95 la_data_in[49]
*96 la_data_in[4]
*97 la_data_in[50]
*98 la_data_in[51]
*99 la_data_in[52]
*100 la_data_in[53]
*101 la_data_in[54]
*102 la_data_in[55]
*103 la_data_in[56]
*104 la_data_in[57]
*105 la_data_in[58]
*106 la_data_in[59]
*107 la_data_in[5]
*108 la_data_in[60]
*109 la_data_in[61]
*110 la_data_in[62]
*111 la_data_in[63]
*112 la_data_in[6]
*113 la_data_in[7]
*114 la_data_in[8]
*115 la_data_in[9]
*116 la_data_out[0]
*117 la_data_out[10]
*118 la_data_out[11]
*119 la_data_out[12]
*120 la_data_out[13]
*121 la_data_out[14]
*122 la_data_out[15]
*123 net202
*124 net203
*125 net204
*126 net205
*127 la_data_out[1]
*128 net206
*129 net207
*130 net208
*131 net209
*132 net210
*133 net211
*134 net212
*135 net213
*136 net214
*137 net215
*138 la_data_out[2]
*139 net216
*140 net217
*141 net151
*142 net152
*143 net153
*144 net154
*145 net155
*146 net156
*147 net157
*148 net158
*149 la_data_out[3]
*150 net159
*151 net160
*152 net161
*153 net162
*154 net163
*155 net164
*156 net165
*157 net166
*158 net167
*159 net168
*160 la_data_out[4]
*161 net169
*162 net170
*163 net171
*164 net172
*165 net173
*166 net174
*167 net175
*168 net176
*169 net177
*170 net178
*171 la_data_out[5]
*172 net179
*173 net180
*174 net181
*175 net182
*176 la_data_out[6]
*177 la_data_out[7]
*178 la_data_out[8]
*179 la_data_out[9]
*180 la_oenb[0]
*181 la_oenb[10]
*182 la_oenb[11]
*183 la_oenb[12]
*184 la_oenb[13]
*185 la_oenb[14]
*186 la_oenb[15]
*187 la_oenb[16]
*188 la_oenb[17]
*189 la_oenb[18]
*190 la_oenb[19]
*191 la_oenb[1]
*192 la_oenb[20]
*193 la_oenb[21]
*194 la_oenb[22]
*195 la_oenb[23]
*196 la_oenb[24]
*197 la_oenb[25]
*198 la_oenb[26]
*199 la_oenb[27]
*200 la_oenb[28]
*201 la_oenb[29]
*202 la_oenb[2]
*203 la_oenb[30]
*204 la_oenb[31]
*205 la_oenb[32]
*206 la_oenb[33]
*207 la_oenb[34]
*208 la_oenb[35]
*209 la_oenb[36]
*210 la_oenb[37]
*211 la_oenb[38]
*212 la_oenb[39]
*213 la_oenb[3]
*214 la_oenb[40]
*215 la_oenb[41]
*216 la_oenb[42]
*217 la_oenb[43]
*218 la_oenb[44]
*219 la_oenb[45]
*220 la_oenb[46]
*221 la_oenb[47]
*222 la_oenb[48]
*223 la_oenb[49]
*224 la_oenb[4]
*225 la_oenb[50]
*226 la_oenb[51]
*227 la_oenb[52]
*228 la_oenb[53]
*229 la_oenb[54]
*230 la_oenb[55]
*231 la_oenb[56]
*232 la_oenb[57]
*233 la_oenb[58]
*234 la_oenb[59]
*235 la_oenb[5]
*236 la_oenb[60]
*237 la_oenb[61]
*238 la_oenb[62]
*239 la_oenb[63]
*240 la_oenb[6]
*241 la_oenb[7]
*242 la_oenb[8]
*243 la_oenb[9]
*246 wb_clk_i
*247 wb_rst_i
*248 wbs_ack_o
*249 wbs_adr_i[0]
*250 wbs_adr_i[10]
*251 wbs_adr_i[11]
*252 wbs_adr_i[12]
*253 wbs_adr_i[13]
*254 wbs_adr_i[14]
*255 wbs_adr_i[15]
*256 wbs_adr_i[16]
*257 wbs_adr_i[17]
*258 wbs_adr_i[18]
*259 wbs_adr_i[19]
*260 wbs_adr_i[1]
*261 wbs_adr_i[20]
*262 wbs_adr_i[21]
*263 wbs_adr_i[22]
*264 wbs_adr_i[23]
*265 wbs_adr_i[24]
*266 wbs_adr_i[25]
*267 wbs_adr_i[26]
*268 wbs_adr_i[27]
*269 wbs_adr_i[28]
*270 wbs_adr_i[29]
*271 wbs_adr_i[2]
*272 wbs_adr_i[30]
*273 wbs_adr_i[31]
*274 wbs_adr_i[3]
*275 wbs_adr_i[4]
*276 wbs_adr_i[5]
*277 wbs_adr_i[6]
*278 wbs_adr_i[7]
*279 wbs_adr_i[8]
*280 wbs_adr_i[9]
*281 wbs_cyc_i
*282 wbs_dat_i[0]
*283 wbs_dat_i[10]
*284 wbs_dat_i[11]
*285 wbs_dat_i[12]
*286 wbs_dat_i[13]
*287 wbs_dat_i[14]
*288 wbs_dat_i[15]
*289 wbs_dat_i[16]
*290 wbs_dat_i[17]
*291 wbs_dat_i[18]
*292 wbs_dat_i[19]
*293 wbs_dat_i[1]
*294 wbs_dat_i[20]
*295 wbs_dat_i[21]
*296 wbs_dat_i[22]
*297 wbs_dat_i[23]
*298 wbs_dat_i[24]
*299 wbs_dat_i[25]
*300 wbs_dat_i[26]
*301 wbs_dat_i[27]
*302 wbs_dat_i[28]
*303 wbs_dat_i[29]
*304 wbs_dat_i[2]
*305 wbs_dat_i[30]
*306 wbs_dat_i[31]
*307 wbs_dat_i[3]
*308 wbs_dat_i[4]
*309 wbs_dat_i[5]
*310 wbs_dat_i[6]
*311 wbs_dat_i[7]
*312 wbs_dat_i[8]
*313 wbs_dat_i[9]
*314 wbs_dat_o[0]
*315 wbs_dat_o[10]
*316 wbs_dat_o[11]
*317 wbs_dat_o[12]
*318 wbs_dat_o[13]
*319 wbs_dat_o[14]
*320 wbs_dat_o[15]
*321 net183
*322 net184
*323 net185
*324 net186
*325 wbs_dat_o[1]
*326 net187
*327 net188
*328 net189
*329 net190
*330 net191
*331 net192
*332 net193
*333 net194
*334 net195
*335 net196
*336 wbs_dat_o[2]
*337 net197
*338 net198
*339 wbs_dat_o[3]
*340 wbs_dat_o[4]
*341 wbs_dat_o[5]
*342 wbs_dat_o[6]
*343 wbs_dat_o[7]
*344 wbs_dat_o[8]
*345 wbs_dat_o[9]
*346 wbs_sel_i[0]
*347 wbs_sel_i[1]
*348 wbs_sel_i[2]
*349 wbs_sel_i[3]
*350 wbs_stb_i
*351 wbs_we_i
*352 _000_
*353 _001_
*354 _002_
*355 _003_
*356 _004_
*357 _005_
*358 _006_
*359 _007_
*360 _008_
*361 _009_
*362 _010_
*363 _011_
*364 _012_
*365 _013_
*366 _014_
*367 _015_
*368 _016_
*369 _017_
*370 _018_
*371 _019_
*372 _020_
*373 _021_
*374 _022_
*375 _023_
*376 _024_
*377 _025_
*378 _026_
*379 _027_
*380 _028_
*381 _029_
*382 _030_
*383 _031_
*384 _032_
*385 _033_
*386 _034_
*387 _035_
*388 _036_
*389 _037_
*390 _038_
*391 _039_
*392 _040_
*393 _041_
*394 _042_
*395 _043_
*396 _044_
*397 _045_
*398 _046_
*399 _047_
*400 _048_
*401 _049_
*402 _050_
*403 _051_
*404 _052_
*405 _053_
*406 _054_
*407 _055_
*408 _056_
*409 _057_
*410 _058_
*411 _059_
*412 _060_
*413 _061_
*414 _062_
*415 _063_
*416 _064_
*417 _065_
*418 _066_
*419 _067_
*420 _068_
*421 _069_
*422 _070_
*423 _071_
*424 _072_
*425 _073_
*426 _074_
*427 _075_
*428 _076_
*429 _077_
*430 _078_
*431 _079_
*432 _080_
*433 _081_
*434 _082_
*435 _083_
*436 _084_
*437 _085_
*438 _086_
*439 _087_
*440 _088_
*441 _089_
*442 _090_
*443 _091_
*444 _092_
*445 _093_
*446 _094_
*447 _095_
*448 _096_
*449 _097_
*450 _098_
*451 _099_
*452 _100_
*453 _101_
*454 _102_
*455 _103_
*456 _104_
*457 _105_
*458 _106_
*459 _107_
*460 _108_
*461 _109_
*462 _110_
*463 _111_
*464 _112_
*465 _113_
*466 _114_
*467 _115_
*468 _116_
*469 _117_
*470 _118_
*471 _119_
*472 _120_
*473 _121_
*474 _122_
*475 _123_
*476 _124_
*477 _125_
*478 _126_
*479 _127_
*480 _128_
*481 _129_
*482 _130_
*483 _131_
*484 _132_
*485 _133_
*486 _134_
*487 _135_
*488 _136_
*489 _137_
*490 _138_
*491 _139_
*492 _140_
*493 _141_
*494 _142_
*495 _143_
*496 _144_
*497 _145_
*498 _146_
*499 _147_
*500 _148_
*501 _149_
*502 _150_
*503 _151_
*504 _152_
*505 _153_
*506 _154_
*507 _155_
*508 _156_
*509 _157_
*510 _158_
*511 _159_
*512 _160_
*513 _161_
*514 _162_
*515 _163_
*516 _164_
*517 _165_
*518 _166_
*519 _167_
*520 _168_
*521 _169_
*522 clknet_0_counter\.clk
*523 clknet_2_0__leaf_counter\.clk
*524 clknet_2_1__leaf_counter\.clk
*525 clknet_2_2__leaf_counter\.clk
*526 clknet_2_3__leaf_counter\.clk
*527 counter\.clk
*528 net1
*529 net10
*530 net100
*531 net101
*532 net102
*533 net103
*534 net104
*535 net105
*536 net106
*537 net107
*538 net108
*539 net109
*540 net11
*541 net110
*542 net111
*543 net112
*544 net113
*545 net114
*546 net115
*547 net116
*548 net117
*549 net118
*550 net119
*551 net12
*552 net120
*553 net121
*554 net122
*555 net123
*556 net124
*557 net125
*558 net126
*559 net127
*560 net128
*561 net129
*562 net13
*563 net130
*564 net131
*565 net132
*566 net133
*567 net134
*568 net135
*569 net136
*570 net137
*571 net138
*572 net139
*573 net14
*574 net140
*575 net141
*576 net142
*577 net143
*578 net144
*579 net145
*580 net146
*581 net147
*582 net148
*583 net149
*584 net15
*585 net150
*586 net16
*587 net17
*588 net18
*589 net19
*590 net2
*591 net20
*592 net21
*593 net218
*594 net219
*595 net22
*596 net220
*597 net221
*598 net222
*599 net223
*600 net224
*601 net225
*602 net226
*603 net227
*604 net228
*605 net229
*606 net23
*607 net230
*608 net231
*609 net232
*610 net233
*611 net234
*612 net235
*613 net236
*614 net237
*615 net238
*616 net239
*617 net24
*618 net240
*619 net241
*620 net242
*621 net243
*622 net244
*623 net245
*624 net246
*625 net247
*626 net248
*627 net249
*628 net25
*629 net250
*630 net251
*631 net252
*632 net253
*633 net254
*634 net255
*635 net256
*636 net257
*637 net258
*638 net259
*639 net26
*640 net260
*641 net261
*642 net262
*643 net263
*644 net264
*645 net265
*646 net266
*647 net267
*648 net268
*649 net269
*650 net27
*651 net270
*652 net271
*653 net272
*654 net273
*655 net274
*656 net275
*657 net276
*658 net277
*659 net278
*660 net279
*661 net28
*662 net280
*663 net281
*664 net282
*665 net283
*666 net284
*667 net285
*668 net286
*669 net287
*670 net288
*671 net289
*672 net29
*673 net290
*674 net291
*675 net292
*676 net293
*677 net294
*678 net295
*679 net296
*680 net297
*681 net298
*682 net299
*683 net3
*684 net30
*685 net300
*686 net301
*687 net302
*688 net303
*689 net304
*690 net305
*691 net306
*692 net31
*693 net32
*694 net33
*695 net34
*696 net35
*697 net36
*698 net37
*699 net38
*700 net39
*701 net4
*702 net40
*703 net41
*704 net42
*705 net43
*706 net44
*707 net45
*708 net46
*709 net47
*710 net48
*711 net49
*712 net5
*713 net50
*714 net51
*715 net52
*716 net53
*717 net54
*718 net55
*719 net56
*720 net57
*721 net58
*722 net59
*723 net6
*724 net60
*725 net61
*726 net62
*727 net63
*728 net64
*729 net65
*730 net66
*731 net67
*732 net68
*733 net69
*734 net7
*735 net70
*736 net71
*737 net72
*738 net73
*739 net74
*740 net75
*741 net76
*742 net77
*743 net78
*744 net79
*745 net8
*746 net80
*747 net81
*748 net82
*749 net83
*750 net84
*751 net85
*752 net86
*753 net87
*754 net88
*755 net89
*756 net9
*757 net90
*758 net91
*759 net92
*760 net93
*761 net94
*762 net95
*763 net96
*764 net97
*765 net98
*766 net99
*767 ANTENNA_1
*768 ANTENNA_2
*769 ANTENNA__170__I0
*770 ANTENNA__170__I1
*771 ANTENNA__170__S
*772 ANTENNA__172__I0
*773 ANTENNA__172__I1
*774 ANTENNA__172__S
*775 ANTENNA__174__I
*776 ANTENNA__176__I
*777 ANTENNA__179__A1
*778 ANTENNA__185__B
*779 ANTENNA__186__A1
*780 ANTENNA__187__A1
*781 ANTENNA__187__A2
*782 ANTENNA__192__B
*783 ANTENNA__193__B
*784 ANTENNA__195__B
*785 ANTENNA__196__B
*786 ANTENNA__198__I
*787 ANTENNA__199__I
*788 ANTENNA__200__B
*789 ANTENNA__201__B
*790 ANTENNA__202__B
*791 ANTENNA__205__B
*792 ANTENNA__207__B
*793 ANTENNA__208__B
*794 ANTENNA__209__B
*795 ANTENNA__211__B
*796 ANTENNA__212__B
*797 ANTENNA__213__B
*798 ANTENNA__214__B
*799 ANTENNA__220__I
*800 ANTENNA__222__A1
*801 ANTENNA__222__B2
*802 ANTENNA__222__C2
*803 ANTENNA__225__I
*804 ANTENNA__227__A1
*805 ANTENNA__227__C2
*806 ANTENNA__231__A1
*807 ANTENNA__231__C2
*808 ANTENNA__235__A1
*809 ANTENNA__235__C2
*810 ANTENNA__238__A1
*811 ANTENNA__238__A2
*812 ANTENNA__239__A2
*813 ANTENNA__241__A1
*814 ANTENNA__241__C2
*815 ANTENNA__243__A2
*816 ANTENNA__244__A1
*817 ANTENNA__245__A2
*818 ANTENNA__245__B
*819 ANTENNA__247__A1
*820 ANTENNA__247__C2
*821 ANTENNA__250__A1
*822 ANTENNA__250__C2
*823 ANTENNA__253__A1
*824 ANTENNA__254__A1
*825 ANTENNA__254__C2
*826 ANTENNA__257__A1
*827 ANTENNA__257__A2
*828 ANTENNA__261__I
*829 ANTENNA__262__A2
*830 ANTENNA__262__A3
*831 ANTENNA__267__A1
*832 ANTENNA__267__C2
*833 ANTENNA__270__A1
*834 ANTENNA__270__A2
*835 ANTENNA__271__A1
*836 ANTENNA__272__A1
*837 ANTENNA__272__B2
*838 ANTENNA__273__B
*839 ANTENNA__275__A1
*840 ANTENNA__277__A1
*841 ANTENNA__277__C2
*842 ANTENNA__279__A1
*843 ANTENNA__279__B
*844 ANTENNA__280__I
*845 ANTENNA__281__I
*846 ANTENNA__284__A1
*847 ANTENNA__284__C2
*848 ANTENNA__287__A1
*849 ANTENNA__287__C2
*850 ANTENNA__289__I
*851 ANTENNA__293__A1
*852 ANTENNA__293__B2
*853 ANTENNA__294__B
*854 ANTENNA__295__A2
*855 ANTENNA__295__A3
*856 ANTENNA__296__I
*857 ANTENNA__299__A1
*858 ANTENNA__299__B2
*859 ANTENNA__301__A1
*860 ANTENNA__302__A1
*861 ANTENNA__302__C2
*862 ANTENNA__305__A1
*863 ANTENNA__306__A1
*864 ANTENNA__308__I0
*865 ANTENNA__308__S
*866 ANTENNA__310__I0
*867 ANTENNA__310__S
*868 ANTENNA__312__I0
*869 ANTENNA__312__S
*870 ANTENNA__314__I0
*871 ANTENNA__314__S
*872 ANTENNA__317__I0
*873 ANTENNA__317__I1
*874 ANTENNA__319__I0
*875 ANTENNA__321__I0
*876 ANTENNA__321__I1
*877 ANTENNA__323__A1
*878 ANTENNA__325__I0
*879 ANTENNA__325__I1
*880 ANTENNA__327__A1
*881 ANTENNA__331__A1
*882 ANTENNA__334__A1
*883 ANTENNA__336__A1
*884 ANTENNA__338__A1
*885 ANTENNA__340__I0
*886 ANTENNA__340__I1
*887 ANTENNA__342__CLK
*888 ANTENNA__343__CLK
*889 ANTENNA__344__CLK
*890 ANTENNA__345__CLK
*891 ANTENNA__346__CLK
*892 ANTENNA__347__CLK
*893 ANTENNA__348__CLK
*894 ANTENNA__349__CLK
*895 ANTENNA__350__CLK
*896 ANTENNA__351__CLK
*897 ANTENNA__352__CLK
*898 ANTENNA__353__CLK
*899 ANTENNA__354__CLK
*900 ANTENNA__355__CLK
*901 ANTENNA__356__CLK
*902 ANTENNA__357__CLK
*903 ANTENNA__358__CLK
*904 ANTENNA__359__CLK
*905 ANTENNA__360__CLK
*906 ANTENNA__361__CLK
*907 ANTENNA__362__CLK
*908 ANTENNA__363__CLK
*909 ANTENNA__364__CLK
*910 ANTENNA__365__CLK
*911 ANTENNA__366__CLK
*912 ANTENNA__367__CLK
*913 ANTENNA__368__CLK
*914 ANTENNA__369__CLK
*915 ANTENNA__370__CLK
*916 ANTENNA__371__CLK
*917 ANTENNA__372__CLK
*918 ANTENNA__373__CLK
*919 ANTENNA__374__CLK
*920 ANTENNA__445__I
*921 ANTENNA__457__I
*922 ANTENNA__458__I
*923 ANTENNA__465__I
*924 ANTENNA__468__I
*925 ANTENNA__470__I
*926 ANTENNA__471__I
*927 ANTENNA__472__I
*928 ANTENNA_clkbuf_0_counter\.clk_I
*929 ANTENNA_clkbuf_2_0__f_counter\.clk_I
*930 ANTENNA_clkbuf_2_1__f_counter\.clk_I
*931 ANTENNA_clkbuf_2_2__f_counter\.clk_I
*932 ANTENNA_clkbuf_2_3__f_counter\.clk_I
*933 ANTENNA_fanout125_I
*934 ANTENNA_fanout131_I
*935 ANTENNA_fanout135_I
*936 ANTENNA_fanout137_I
*937 ANTENNA_fanout139_I
*938 ANTENNA_fanout148_I
*939 ANTENNA_fanout149_I
*940 ANTENNA_hold10_I
*941 ANTENNA_hold13_I
*942 ANTENNA_hold14_I
*943 ANTENNA_hold17_I
*944 ANTENNA_hold18_I
*945 ANTENNA_hold1_I
*946 ANTENNA_hold21_I
*947 ANTENNA_hold22_I
*948 ANTENNA_hold25_I
*949 ANTENNA_hold26_I
*950 ANTENNA_hold29_I
*951 ANTENNA_hold2_I
*952 ANTENNA_hold30_I
*953 ANTENNA_hold33_I
*954 ANTENNA_hold34_I
*955 ANTENNA_hold37_I
*956 ANTENNA_hold38_I
*957 ANTENNA_hold41_I
*958 ANTENNA_hold42_I
*959 ANTENNA_hold45_I
*960 ANTENNA_hold46_I
*961 ANTENNA_hold49_I
*962 ANTENNA_hold50_I
*963 ANTENNA_hold53_I
*964 ANTENNA_hold54_I
*965 ANTENNA_hold57_I
*966 ANTENNA_hold58_I
*967 ANTENNA_hold5_I
*968 ANTENNA_hold61_I
*969 ANTENNA_hold62_I
*970 ANTENNA_hold65_I
*971 ANTENNA_hold66_I
*972 ANTENNA_hold68_I
*973 ANTENNA_hold69_I
*974 ANTENNA_hold6_I
*975 ANTENNA_hold71_I
*976 ANTENNA_hold72_I
*977 ANTENNA_hold73_I
*978 ANTENNA_hold76_I
*979 ANTENNA_hold77_I
*980 ANTENNA_hold78_I
*981 ANTENNA_hold82_I
*982 ANTENNA_hold83_I
*983 ANTENNA_hold84_I
*984 ANTENNA_hold85_I
*985 ANTENNA_hold86_I
*986 ANTENNA_hold87_I
*987 ANTENNA_hold88_I
*988 ANTENNA_hold89_I
*989 ANTENNA_hold9_I
*990 ANTENNA_input17_I
*991 ANTENNA_input28_I
*992 ANTENNA_input35_I
*993 ANTENNA_input37_I
*994 ANTENNA_input38_I
*995 ANTENNA_input39_I
*996 ANTENNA_input40_I
*997 ANTENNA_input41_I
*998 ANTENNA_input42_I
*999 ANTENNA_input43_I
*1000 ANTENNA_input44_I
*1001 ANTENNA_input45_I
*1002 ANTENNA_input46_I
*1003 ANTENNA_input47_I
*1004 ANTENNA_input48_I
*1005 ANTENNA_input49_I
*1006 ANTENNA_input50_I
*1007 ANTENNA_input51_I
*1008 ANTENNA_input52_I
*1009 ANTENNA_input53_I
*1010 ANTENNA_input54_I
*1011 ANTENNA_input55_I
*1012 ANTENNA_input56_I
*1013 ANTENNA_input57_I
*1014 ANTENNA_input58_I
*1015 ANTENNA_output100_I
*1016 ANTENNA_output101_I
*1017 ANTENNA_output102_I
*1018 ANTENNA_output103_I
*1019 ANTENNA_output104_I
*1020 ANTENNA_output105_I
*1021 ANTENNA_output106_I
*1022 ANTENNA_output107_I
*1023 ANTENNA_output108_I
*1024 ANTENNA_output109_I
*1025 ANTENNA_output110_I
*1026 ANTENNA_output111_I
*1027 ANTENNA_output112_I
*1028 ANTENNA_output113_I
*1029 ANTENNA_output114_I
*1030 ANTENNA_output115_I
*1031 ANTENNA_output116_I
*1032 ANTENNA_output117_I
*1033 ANTENNA_output118_I
*1034 ANTENNA_output119_I
*1035 ANTENNA_output120_I
*1036 ANTENNA_output121_I
*1037 ANTENNA_output122_I
*1038 ANTENNA_output123_I
*1039 ANTENNA_output59_I
*1040 ANTENNA_output60_I
*1041 ANTENNA_output61_I
*1042 ANTENNA_output62_I
*1043 ANTENNA_output63_I
*1044 ANTENNA_output64_I
*1045 ANTENNA_output65_I
*1046 ANTENNA_output66_I
*1047 ANTENNA_output67_I
*1048 ANTENNA_output68_I
*1049 ANTENNA_output69_I
*1050 ANTENNA_output70_I
*1051 ANTENNA_output71_I
*1052 ANTENNA_output72_I
*1053 ANTENNA_output73_I
*1054 ANTENNA_output74_I
*1055 ANTENNA_output75_I
*1056 ANTENNA_output76_I
*1057 ANTENNA_output77_I
*1058 ANTENNA_output78_I
*1059 ANTENNA_output79_I
*1060 ANTENNA_output80_I
*1061 ANTENNA_output81_I
*1062 ANTENNA_output82_I
*1063 ANTENNA_output83_I
*1064 ANTENNA_output84_I
*1065 ANTENNA_output85_I
*1066 ANTENNA_output86_I
*1067 ANTENNA_output87_I
*1068 ANTENNA_output88_I
*1069 ANTENNA_output89_I
*1070 ANTENNA_output90_I
*1071 ANTENNA_output91_I
*1072 ANTENNA_output92_I
*1073 ANTENNA_output93_I
*1074 ANTENNA_output94_I
*1075 ANTENNA_output95_I
*1076 ANTENNA_output96_I
*1077 ANTENNA_output97_I
*1078 ANTENNA_output98_I
*1079 ANTENNA_output99_I
*1080 FILLER_0_0_1022
*1081 FILLER_0_0_104
*1082 FILLER_0_0_1056
*1083 FILLER_0_0_1090
*1084 FILLER_0_0_1124
*1085 FILLER_0_0_1158
*1086 FILLER_0_0_1192
*1087 FILLER_0_0_1226
*1088 FILLER_0_0_1260
*1089 FILLER_0_0_1294
*1090 FILLER_0_0_1328
*1091 FILLER_0_0_1362
*1092 FILLER_0_0_138
*1093 FILLER_0_0_1396
*1094 FILLER_0_0_1430
*1095 FILLER_0_0_1464
*1096 FILLER_0_0_1498
*1097 FILLER_0_0_1532
*1098 FILLER_0_0_1566
*1099 FILLER_0_0_1600
*1100 FILLER_0_0_1634
*1101 FILLER_0_0_1668
*1102 FILLER_0_0_1702
*1103 FILLER_0_0_172
*1104 FILLER_0_0_1736
*1105 FILLER_0_0_1770
*1106 FILLER_0_0_1804
*1107 FILLER_0_0_1838
*1108 FILLER_0_0_1872
*1109 FILLER_0_0_1906
*1110 FILLER_0_0_1940
*1111 FILLER_0_0_1974
*1112 FILLER_0_0_2
*1113 FILLER_0_0_2008
*1114 FILLER_0_0_2042
*1115 FILLER_0_0_206
*1116 FILLER_0_0_2076
*1117 FILLER_0_0_2110
*1118 FILLER_0_0_2144
*1119 FILLER_0_0_2160
*1120 FILLER_0_0_2164
*1121 FILLER_0_0_2166
*1122 FILLER_0_0_2171
*1123 FILLER_0_0_2175
*1124 FILLER_0_0_2178
*1125 FILLER_0_0_2212
*1126 FILLER_0_0_2246
*1127 FILLER_0_0_2280
*1128 FILLER_0_0_2296
*1129 FILLER_0_0_2304
*1130 FILLER_0_0_2309
*1131 FILLER_0_0_2311
*1132 FILLER_0_0_2314
*1133 FILLER_0_0_2352
*1134 FILLER_0_0_2360
*1135 FILLER_0_0_2364
*1136 FILLER_0_0_2369
*1137 FILLER_0_0_2377
*1138 FILLER_0_0_2379
*1139 FILLER_0_0_2382
*1140 FILLER_0_0_240
*1141 FILLER_0_0_2416
*1142 FILLER_0_0_2418
*1143 FILLER_0_0_2445
*1144 FILLER_0_0_2447
*1145 FILLER_0_0_2476
*1146 FILLER_0_0_2488
*1147 FILLER_0_0_2490
*1148 FILLER_0_0_2507
*1149 FILLER_0_0_2511
*1150 FILLER_0_0_2513
*1151 FILLER_0_0_2542
*1152 FILLER_0_0_2546
*1153 FILLER_0_0_2568
*1154 FILLER_0_0_2572
*1155 FILLER_0_0_2574
*1156 FILLER_0_0_2581
*1157 FILLER_0_0_2583
*1158 FILLER_0_0_2602
*1159 FILLER_0_0_2606
*1160 FILLER_0_0_2614
*1161 FILLER_0_0_2646
*1162 FILLER_0_0_2680
*1163 FILLER_0_0_2714
*1164 FILLER_0_0_274
*1165 FILLER_0_0_2752
*1166 FILLER_0_0_2786
*1167 FILLER_0_0_2816
*1168 FILLER_0_0_2854
*1169 FILLER_0_0_2884
*1170 FILLER_0_0_2922
*1171 FILLER_0_0_2926
*1172 FILLER_0_0_2942
*1173 FILLER_0_0_2950
*1174 FILLER_0_0_2952
*1175 FILLER_0_0_2957
*1176 FILLER_0_0_2960
*1177 FILLER_0_0_2994
*1178 FILLER_0_0_3028
*1179 FILLER_0_0_3062
*1180 FILLER_0_0_308
*1181 FILLER_0_0_3096
*1182 FILLER_0_0_3130
*1183 FILLER_0_0_3164
*1184 FILLER_0_0_3198
*1185 FILLER_0_0_3232
*1186 FILLER_0_0_3266
*1187 FILLER_0_0_3300
*1188 FILLER_0_0_3334
*1189 FILLER_0_0_3368
*1190 FILLER_0_0_3402
*1191 FILLER_0_0_342
*1192 FILLER_0_0_3436
*1193 FILLER_0_0_3470
*1194 FILLER_0_0_3504
*1195 FILLER_0_0_3538
*1196 FILLER_0_0_3572
*1197 FILLER_0_0_36
*1198 FILLER_0_0_3606
*1199 FILLER_0_0_3640
*1200 FILLER_0_0_3674
*1201 FILLER_0_0_3708
*1202 FILLER_0_0_3742
*1203 FILLER_0_0_376
*1204 FILLER_0_0_3776
*1205 FILLER_0_0_3810
*1206 FILLER_0_0_3844
*1207 FILLER_0_0_3878
*1208 FILLER_0_0_3912
*1209 FILLER_0_0_3946
*1210 FILLER_0_0_3980
*1211 FILLER_0_0_4014
*1212 FILLER_0_0_4048
*1213 FILLER_0_0_4082
*1214 FILLER_0_0_410
*1215 FILLER_0_0_4116
*1216 FILLER_0_0_4150
*1217 FILLER_0_0_4184
*1218 FILLER_0_0_4218
*1219 FILLER_0_0_4252
*1220 FILLER_0_0_4286
*1221 FILLER_0_0_4320
*1222 FILLER_0_0_4354
*1223 FILLER_0_0_4388
*1224 FILLER_0_0_4422
*1225 FILLER_0_0_444
*1226 FILLER_0_0_4456
*1227 FILLER_0_0_4490
*1228 FILLER_0_0_4524
*1229 FILLER_0_0_4558
*1230 FILLER_0_0_4592
*1231 FILLER_0_0_4626
*1232 FILLER_0_0_4660
*1233 FILLER_0_0_4694
*1234 FILLER_0_0_4728
*1235 FILLER_0_0_4762
*1236 FILLER_0_0_478
*1237 FILLER_0_0_4796
*1238 FILLER_0_0_4830
*1239 FILLER_0_0_4864
*1240 FILLER_0_0_4898
*1241 FILLER_0_0_4932
*1242 FILLER_0_0_4966
*1243 FILLER_0_0_512
*1244 FILLER_0_0_546
*1245 FILLER_0_0_580
*1246 FILLER_0_0_614
*1247 FILLER_0_0_648
*1248 FILLER_0_0_682
*1249 FILLER_0_0_70
*1250 FILLER_0_0_716
*1251 FILLER_0_0_750
*1252 FILLER_0_0_784
*1253 FILLER_0_0_818
*1254 FILLER_0_0_852
*1255 FILLER_0_0_886
*1256 FILLER_0_0_920
*1257 FILLER_0_0_954
*1258 FILLER_0_0_988
*1259 FILLER_0_100_101
*1260 FILLER_0_100_1011
*1261 FILLER_0_100_1017
*1262 FILLER_0_100_107
*1263 FILLER_0_100_1081
*1264 FILLER_0_100_1087
*1265 FILLER_0_100_1151
*1266 FILLER_0_100_1157
*1267 FILLER_0_100_1221
*1268 FILLER_0_100_1227
*1269 FILLER_0_100_1291
*1270 FILLER_0_100_1297
*1271 FILLER_0_100_1361
*1272 FILLER_0_100_1367
*1273 FILLER_0_100_1431
*1274 FILLER_0_100_1437
*1275 FILLER_0_100_1501
*1276 FILLER_0_100_1507
*1277 FILLER_0_100_1571
*1278 FILLER_0_100_1577
*1279 FILLER_0_100_1641
*1280 FILLER_0_100_1647
*1281 FILLER_0_100_171
*1282 FILLER_0_100_1711
*1283 FILLER_0_100_1717
*1284 FILLER_0_100_177
*1285 FILLER_0_100_1781
*1286 FILLER_0_100_1787
*1287 FILLER_0_100_1851
*1288 FILLER_0_100_1857
*1289 FILLER_0_100_1921
*1290 FILLER_0_100_1927
*1291 FILLER_0_100_1991
*1292 FILLER_0_100_1997
*1293 FILLER_0_100_2
*1294 FILLER_0_100_2061
*1295 FILLER_0_100_2067
*1296 FILLER_0_100_2131
*1297 FILLER_0_100_2137
*1298 FILLER_0_100_2201
*1299 FILLER_0_100_2207
*1300 FILLER_0_100_2271
*1301 FILLER_0_100_2277
*1302 FILLER_0_100_2341
*1303 FILLER_0_100_2347
*1304 FILLER_0_100_241
*1305 FILLER_0_100_2411
*1306 FILLER_0_100_2417
*1307 FILLER_0_100_247
*1308 FILLER_0_100_2481
*1309 FILLER_0_100_2487
*1310 FILLER_0_100_2551
*1311 FILLER_0_100_2557
*1312 FILLER_0_100_2621
*1313 FILLER_0_100_2627
*1314 FILLER_0_100_2691
*1315 FILLER_0_100_2697
*1316 FILLER_0_100_2761
*1317 FILLER_0_100_2767
*1318 FILLER_0_100_2831
*1319 FILLER_0_100_2837
*1320 FILLER_0_100_2901
*1321 FILLER_0_100_2907
*1322 FILLER_0_100_2971
*1323 FILLER_0_100_2977
*1324 FILLER_0_100_3041
*1325 FILLER_0_100_3047
*1326 FILLER_0_100_311
*1327 FILLER_0_100_3111
*1328 FILLER_0_100_3117
*1329 FILLER_0_100_317
*1330 FILLER_0_100_3181
*1331 FILLER_0_100_3187
*1332 FILLER_0_100_3251
*1333 FILLER_0_100_3257
*1334 FILLER_0_100_3321
*1335 FILLER_0_100_3327
*1336 FILLER_0_100_3391
*1337 FILLER_0_100_3397
*1338 FILLER_0_100_34
*1339 FILLER_0_100_3461
*1340 FILLER_0_100_3467
*1341 FILLER_0_100_3531
*1342 FILLER_0_100_3537
*1343 FILLER_0_100_3601
*1344 FILLER_0_100_3607
*1345 FILLER_0_100_3671
*1346 FILLER_0_100_3677
*1347 FILLER_0_100_37
*1348 FILLER_0_100_3741
*1349 FILLER_0_100_3747
*1350 FILLER_0_100_381
*1351 FILLER_0_100_3811
*1352 FILLER_0_100_3817
*1353 FILLER_0_100_387
*1354 FILLER_0_100_3881
*1355 FILLER_0_100_3887
*1356 FILLER_0_100_3951
*1357 FILLER_0_100_3957
*1358 FILLER_0_100_4021
*1359 FILLER_0_100_4027
*1360 FILLER_0_100_4091
*1361 FILLER_0_100_4097
*1362 FILLER_0_100_4161
*1363 FILLER_0_100_4167
*1364 FILLER_0_100_4231
*1365 FILLER_0_100_4237
*1366 FILLER_0_100_4301
*1367 FILLER_0_100_4307
*1368 FILLER_0_100_4371
*1369 FILLER_0_100_4377
*1370 FILLER_0_100_4441
*1371 FILLER_0_100_4447
*1372 FILLER_0_100_451
*1373 FILLER_0_100_4511
*1374 FILLER_0_100_4517
*1375 FILLER_0_100_457
*1376 FILLER_0_100_4581
*1377 FILLER_0_100_4587
*1378 FILLER_0_100_4651
*1379 FILLER_0_100_4657
*1380 FILLER_0_100_4721
*1381 FILLER_0_100_4727
*1382 FILLER_0_100_4791
*1383 FILLER_0_100_4797
*1384 FILLER_0_100_4861
*1385 FILLER_0_100_4867
*1386 FILLER_0_100_4931
*1387 FILLER_0_100_4937
*1388 FILLER_0_100_4969
*1389 FILLER_0_100_4973
*1390 FILLER_0_100_521
*1391 FILLER_0_100_527
*1392 FILLER_0_100_591
*1393 FILLER_0_100_597
*1394 FILLER_0_100_661
*1395 FILLER_0_100_667
*1396 FILLER_0_100_731
*1397 FILLER_0_100_737
*1398 FILLER_0_100_801
*1399 FILLER_0_100_807
*1400 FILLER_0_100_871
*1401 FILLER_0_100_877
*1402 FILLER_0_100_941
*1403 FILLER_0_100_947
*1404 FILLER_0_101_1046
*1405 FILLER_0_101_1052
*1406 FILLER_0_101_1116
*1407 FILLER_0_101_1122
*1408 FILLER_0_101_1186
*1409 FILLER_0_101_1192
*1410 FILLER_0_101_1256
*1411 FILLER_0_101_1262
*1412 FILLER_0_101_1326
*1413 FILLER_0_101_1332
*1414 FILLER_0_101_136
*1415 FILLER_0_101_1396
*1416 FILLER_0_101_1402
*1417 FILLER_0_101_142
*1418 FILLER_0_101_1466
*1419 FILLER_0_101_1472
*1420 FILLER_0_101_1536
*1421 FILLER_0_101_1542
*1422 FILLER_0_101_1606
*1423 FILLER_0_101_1612
*1424 FILLER_0_101_1676
*1425 FILLER_0_101_1682
*1426 FILLER_0_101_1746
*1427 FILLER_0_101_1752
*1428 FILLER_0_101_1816
*1429 FILLER_0_101_1822
*1430 FILLER_0_101_1886
*1431 FILLER_0_101_1892
*1432 FILLER_0_101_1956
*1433 FILLER_0_101_1962
*1434 FILLER_0_101_2
*1435 FILLER_0_101_2026
*1436 FILLER_0_101_2032
*1437 FILLER_0_101_206
*1438 FILLER_0_101_2096
*1439 FILLER_0_101_2102
*1440 FILLER_0_101_212
*1441 FILLER_0_101_2166
*1442 FILLER_0_101_2172
*1443 FILLER_0_101_2236
*1444 FILLER_0_101_2242
*1445 FILLER_0_101_2306
*1446 FILLER_0_101_2312
*1447 FILLER_0_101_2376
*1448 FILLER_0_101_2382
*1449 FILLER_0_101_2446
*1450 FILLER_0_101_2452
*1451 FILLER_0_101_2516
*1452 FILLER_0_101_2522
*1453 FILLER_0_101_2586
*1454 FILLER_0_101_2592
*1455 FILLER_0_101_2656
*1456 FILLER_0_101_2662
*1457 FILLER_0_101_2726
*1458 FILLER_0_101_2732
*1459 FILLER_0_101_276
*1460 FILLER_0_101_2796
*1461 FILLER_0_101_2802
*1462 FILLER_0_101_282
*1463 FILLER_0_101_2866
*1464 FILLER_0_101_2872
*1465 FILLER_0_101_2936
*1466 FILLER_0_101_2942
*1467 FILLER_0_101_3006
*1468 FILLER_0_101_3012
*1469 FILLER_0_101_3076
*1470 FILLER_0_101_3082
*1471 FILLER_0_101_3146
*1472 FILLER_0_101_3152
*1473 FILLER_0_101_3216
*1474 FILLER_0_101_3222
*1475 FILLER_0_101_3286
*1476 FILLER_0_101_3292
*1477 FILLER_0_101_3356
*1478 FILLER_0_101_3362
*1479 FILLER_0_101_3426
*1480 FILLER_0_101_3432
*1481 FILLER_0_101_346
*1482 FILLER_0_101_3496
*1483 FILLER_0_101_3502
*1484 FILLER_0_101_352
*1485 FILLER_0_101_3566
*1486 FILLER_0_101_3572
*1487 FILLER_0_101_3636
*1488 FILLER_0_101_3642
*1489 FILLER_0_101_3706
*1490 FILLER_0_101_3712
*1491 FILLER_0_101_3776
*1492 FILLER_0_101_3782
*1493 FILLER_0_101_3846
*1494 FILLER_0_101_3852
*1495 FILLER_0_101_3916
*1496 FILLER_0_101_3922
*1497 FILLER_0_101_3986
*1498 FILLER_0_101_3992
*1499 FILLER_0_101_4056
*1500 FILLER_0_101_4062
*1501 FILLER_0_101_4126
*1502 FILLER_0_101_4132
*1503 FILLER_0_101_416
*1504 FILLER_0_101_4196
*1505 FILLER_0_101_4202
*1506 FILLER_0_101_422
*1507 FILLER_0_101_4266
*1508 FILLER_0_101_4272
*1509 FILLER_0_101_4336
*1510 FILLER_0_101_4342
*1511 FILLER_0_101_4406
*1512 FILLER_0_101_4412
*1513 FILLER_0_101_4476
*1514 FILLER_0_101_4482
*1515 FILLER_0_101_4546
*1516 FILLER_0_101_4552
*1517 FILLER_0_101_4616
*1518 FILLER_0_101_4622
*1519 FILLER_0_101_4686
*1520 FILLER_0_101_4692
*1521 FILLER_0_101_4756
*1522 FILLER_0_101_4762
*1523 FILLER_0_101_4826
*1524 FILLER_0_101_4832
*1525 FILLER_0_101_486
*1526 FILLER_0_101_4896
*1527 FILLER_0_101_4902
*1528 FILLER_0_101_492
*1529 FILLER_0_101_4966
*1530 FILLER_0_101_4972
*1531 FILLER_0_101_556
*1532 FILLER_0_101_562
*1533 FILLER_0_101_626
*1534 FILLER_0_101_632
*1535 FILLER_0_101_66
*1536 FILLER_0_101_696
*1537 FILLER_0_101_702
*1538 FILLER_0_101_72
*1539 FILLER_0_101_766
*1540 FILLER_0_101_772
*1541 FILLER_0_101_836
*1542 FILLER_0_101_842
*1543 FILLER_0_101_906
*1544 FILLER_0_101_912
*1545 FILLER_0_101_976
*1546 FILLER_0_101_982
*1547 FILLER_0_102_101
*1548 FILLER_0_102_1011
*1549 FILLER_0_102_1017
*1550 FILLER_0_102_107
*1551 FILLER_0_102_1081
*1552 FILLER_0_102_1087
*1553 FILLER_0_102_1151
*1554 FILLER_0_102_1157
*1555 FILLER_0_102_1221
*1556 FILLER_0_102_1227
*1557 FILLER_0_102_1291
*1558 FILLER_0_102_1297
*1559 FILLER_0_102_1361
*1560 FILLER_0_102_1367
*1561 FILLER_0_102_1431
*1562 FILLER_0_102_1437
*1563 FILLER_0_102_1501
*1564 FILLER_0_102_1507
*1565 FILLER_0_102_1571
*1566 FILLER_0_102_1577
*1567 FILLER_0_102_1641
*1568 FILLER_0_102_1647
*1569 FILLER_0_102_171
*1570 FILLER_0_102_1711
*1571 FILLER_0_102_1717
*1572 FILLER_0_102_177
*1573 FILLER_0_102_1781
*1574 FILLER_0_102_1787
*1575 FILLER_0_102_1851
*1576 FILLER_0_102_1857
*1577 FILLER_0_102_1921
*1578 FILLER_0_102_1927
*1579 FILLER_0_102_1991
*1580 FILLER_0_102_1997
*1581 FILLER_0_102_2
*1582 FILLER_0_102_2061
*1583 FILLER_0_102_2067
*1584 FILLER_0_102_2131
*1585 FILLER_0_102_2137
*1586 FILLER_0_102_2201
*1587 FILLER_0_102_2207
*1588 FILLER_0_102_2271
*1589 FILLER_0_102_2277
*1590 FILLER_0_102_2341
*1591 FILLER_0_102_2347
*1592 FILLER_0_102_241
*1593 FILLER_0_102_2411
*1594 FILLER_0_102_2417