*SPEF "ieee 1481-1999"
*DESIGN "user_project_wrapper"
*DATE "11:11:11 Fri 11 11, 1111"
*VENDOR "OpenRCX"
*PROGRAM "Parallel Extraction"
*VERSION "1.0"
*DESIGN_FLOW "NAME_SCOPE LOCAL" "PIN_CAP NONE"
*DIVIDER /
*DELIMITER :
*BUS_DELIMITER []
*T_UNIT 1 NS
*C_UNIT 1 PF
*R_UNIT 1 OHM
*L_UNIT 1 HENRY

*NAME_MAP
*1 io_in[0]
*2 io_in[10]
*3 io_in[11]
*4 io_in[12]
*5 io_in[13]
*6 io_in[14]
*7 io_in[15]
*8 io_in[16]
*9 io_in[17]
*10 io_in[18]
*11 io_in[19]
*12 io_in[1]
*13 io_in[20]
*14 io_in[21]
*15 io_in[22]
*16 io_in[23]
*17 io_in[24]
*18 io_in[25]
*19 io_in[26]
*20 io_in[27]
*21 io_in[28]
*22 io_in[29]
*23 io_in[2]
*24 io_in[30]
*25 io_in[31]
*26 io_in[32]
*27 io_in[33]
*28 io_in[34]
*29 io_in[35]
*30 io_in[36]
*31 io_in[37]
*32 io_in[3]
*33 io_in[4]
*34 io_in[5]
*35 io_in[6]
*36 io_in[7]
*37 io_in[8]
*38 io_in[9]
*39 io_oeb[0]
*40 io_oeb[10]
*41 io_oeb[11]
*42 io_oeb[12]
*43 io_oeb[13]
*44 io_oeb[14]
*45 io_oeb[15]
*46 io_oeb[16]
*47 io_oeb[17]
*48 io_oeb[18]
*49 io_oeb[19]
*50 io_oeb[1]
*51 io_oeb[20]
*52 io_oeb[21]
*53 io_oeb[22]
*54 io_oeb[23]
*55 io_oeb[24]
*56 io_oeb[25]
*57 io_oeb[26]
*58 io_oeb[27]
*59 io_oeb[28]
*60 io_oeb[29]
*61 io_oeb[2]
*62 io_oeb[30]
*63 io_oeb[31]
*64 io_oeb[32]
*65 io_oeb[33]
*66 io_oeb[34]
*67 io_oeb[35]
*68 io_oeb[36]
*69 io_oeb[37]
*70 io_oeb[3]
*71 io_oeb[4]
*72 io_oeb[5]
*73 io_oeb[6]
*74 io_oeb[7]
*75 io_oeb[8]
*76 io_oeb[9]
*77 io_out[0]
*78 io_out[10]
*79 io_out[11]
*80 io_out[12]
*81 io_out[13]
*82 io_out[14]
*83 io_out[15]
*84 io_out[16]
*85 io_out[17]
*86 io_out[18]
*87 io_out[19]
*88 io_out[1]
*89 io_out[20]
*90 io_out[21]
*91 io_out[22]
*92 io_out[23]
*93 io_out[24]
*94 io_out[25]
*95 io_out[26]
*96 io_out[27]
*97 io_out[28]
*98 io_out[29]
*99 io_out[2]
*100 io_out[30]
*101 io_out[31]
*102 io_out[32]
*103 io_out[33]
*104 io_out[34]
*105 io_out[35]
*106 io_out[36]
*107 io_out[37]
*108 io_out[3]
*109 io_out[4]
*110 io_out[5]
*111 io_out[6]
*112 io_out[7]
*113 io_out[8]
*114 io_out[9]
*115 la_data_in[0]
*116 la_data_in[10]
*117 la_data_in[11]
*118 la_data_in[12]
*119 la_data_in[13]
*120 la_data_in[14]
*121 la_data_in[15]
*122 la_data_in[16]
*123 la_data_in[17]
*124 la_data_in[18]
*125 la_data_in[19]
*126 la_data_in[1]
*127 la_data_in[20]
*128 la_data_in[21]
*129 la_data_in[22]
*130 la_data_in[23]
*131 la_data_in[24]
*132 la_data_in[25]
*133 la_data_in[26]
*134 la_data_in[27]
*135 la_data_in[28]
*136 la_data_in[29]
*137 la_data_in[2]
*138 la_data_in[30]
*139 la_data_in[31]
*140 la_data_in[32]
*141 la_data_in[33]
*142 la_data_in[34]
*143 la_data_in[35]
*144 la_data_in[36]
*145 la_data_in[37]
*146 la_data_in[38]
*147 la_data_in[39]
*148 la_data_in[3]
*149 la_data_in[40]
*150 la_data_in[41]
*151 la_data_in[42]
*152 la_data_in[43]
*153 la_data_in[44]
*154 la_data_in[45]
*155 la_data_in[46]
*156 la_data_in[47]
*157 la_data_in[48]
*158 la_data_in[49]
*159 la_data_in[4]
*160 la_data_in[50]
*161 la_data_in[51]
*162 la_data_in[52]
*163 la_data_in[53]
*164 la_data_in[54]
*165 la_data_in[55]
*166 la_data_in[56]
*167 la_data_in[57]
*168 la_data_in[58]
*169 la_data_in[59]
*170 la_data_in[5]
*171 la_data_in[60]
*172 la_data_in[61]
*173 la_data_in[62]
*174 la_data_in[63]
*175 la_data_in[6]
*176 la_data_in[7]
*177 la_data_in[8]
*178 la_data_in[9]
*179 la_data_out[0]
*180 la_data_out[10]
*181 la_data_out[11]
*182 la_data_out[12]
*183 la_data_out[13]
*184 la_data_out[14]
*185 la_data_out[15]
*186 la_data_out[16]
*187 la_data_out[17]
*188 la_data_out[18]
*189 la_data_out[19]
*190 la_data_out[1]
*191 la_data_out[20]
*192 la_data_out[21]
*193 la_data_out[22]
*194 la_data_out[23]
*195 la_data_out[24]
*196 la_data_out[25]
*197 la_data_out[26]
*198 la_data_out[27]
*199 la_data_out[28]
*200 la_data_out[29]
*201 la_data_out[2]
*202 la_data_out[30]
*203 la_data_out[31]
*204 la_data_out[32]
*205 la_data_out[33]
*206 la_data_out[34]
*207 la_data_out[35]
*208 la_data_out[36]
*209 la_data_out[37]
*210 la_data_out[38]
*211 la_data_out[39]
*212 la_data_out[3]
*213 la_data_out[40]
*214 la_data_out[41]
*215 la_data_out[42]
*216 la_data_out[43]
*217 la_data_out[44]
*218 la_data_out[45]
*219 la_data_out[46]
*220 la_data_out[47]
*221 la_data_out[48]
*222 la_data_out[49]
*223 la_data_out[4]
*224 la_data_out[50]
*225 la_data_out[51]
*226 la_data_out[52]
*227 la_data_out[53]
*228 la_data_out[54]
*229 la_data_out[55]
*230 la_data_out[56]
*231 la_data_out[57]
*232 la_data_out[58]
*233 la_data_out[59]
*234 la_data_out[5]
*235 la_data_out[60]
*236 la_data_out[61]
*237 la_data_out[62]
*238 la_data_out[63]
*239 la_data_out[6]
*240 la_data_out[7]
*241 la_data_out[8]
*242 la_data_out[9]
*243 la_oenb[0]
*244 la_oenb[10]
*245 la_oenb[11]
*246 la_oenb[12]
*247 la_oenb[13]
*248 la_oenb[14]
*249 la_oenb[15]
*250 la_oenb[16]
*251 la_oenb[17]
*252 la_oenb[18]
*253 la_oenb[19]
*254 la_oenb[1]
*255 la_oenb[20]
*256 la_oenb[21]
*257 la_oenb[22]
*258 la_oenb[23]
*259 la_oenb[24]
*260 la_oenb[25]
*261 la_oenb[26]
*262 la_oenb[27]
*263 la_oenb[28]
*264 la_oenb[29]
*265 la_oenb[2]
*266 la_oenb[30]
*267 la_oenb[31]
*268 la_oenb[32]
*269 la_oenb[33]
*270 la_oenb[34]
*271 la_oenb[35]
*272 la_oenb[36]
*273 la_oenb[37]
*274 la_oenb[38]
*275 la_oenb[39]
*276 la_oenb[3]
*277 la_oenb[40]
*278 la_oenb[41]
*279 la_oenb[42]
*280 la_oenb[43]
*281 la_oenb[44]
*282 la_oenb[45]
*283 la_oenb[46]
*284 la_oenb[47]
*285 la_oenb[48]
*286 la_oenb[49]
*287 la_oenb[4]
*288 la_oenb[50]
*289 la_oenb[51]
*290 la_oenb[52]
*291 la_oenb[53]
*292 la_oenb[54]
*293 la_oenb[55]
*294 la_oenb[56]
*295 la_oenb[57]
*296 la_oenb[58]
*297 la_oenb[59]
*298 la_oenb[5]
*299 la_oenb[60]
*300 la_oenb[61]
*301 la_oenb[62]
*302 la_oenb[63]
*303 la_oenb[6]
*304 la_oenb[7]
*305 la_oenb[8]
*306 la_oenb[9]
*307 user_clock2
*308 user_irq[0]
*309 user_irq[1]
*310 user_irq[2]
*313 wb_clk_i
*314 wb_rst_i
*315 wbs_ack_o
*316 wbs_adr_i[0]
*317 wbs_adr_i[10]
*318 wbs_adr_i[11]
*319 wbs_adr_i[12]
*320 wbs_adr_i[13]
*321 wbs_adr_i[14]
*322 wbs_adr_i[15]
*323 wbs_adr_i[16]
*324 wbs_adr_i[17]
*325 wbs_adr_i[18]
*326 wbs_adr_i[19]
*327 wbs_adr_i[1]
*328 wbs_adr_i[20]
*329 wbs_adr_i[21]
*330 wbs_adr_i[22]
*331 wbs_adr_i[23]
*332 wbs_adr_i[24]
*333 wbs_adr_i[25]
*334 wbs_adr_i[26]
*335 wbs_adr_i[27]
*336 wbs_adr_i[28]
*337 wbs_adr_i[29]
*338 wbs_adr_i[2]
*339 wbs_adr_i[30]
*340 wbs_adr_i[31]
*341 wbs_adr_i[3]
*342 wbs_adr_i[4]
*343 wbs_adr_i[5]
*344 wbs_adr_i[6]
*345 wbs_adr_i[7]
*346 wbs_adr_i[8]
*347 wbs_adr_i[9]
*348 wbs_cyc_i
*349 wbs_dat_i[0]
*350 wbs_dat_i[10]
*351 wbs_dat_i[11]
*352 wbs_dat_i[12]
*353 wbs_dat_i[13]
*354 wbs_dat_i[14]
*355 wbs_dat_i[15]
*356 wbs_dat_i[16]
*357 wbs_dat_i[17]
*358 wbs_dat_i[18]
*359 wbs_dat_i[19]
*360 wbs_dat_i[1]
*361 wbs_dat_i[20]
*362 wbs_dat_i[21]
*363 wbs_dat_i[22]
*364 wbs_dat_i[23]
*365 wbs_dat_i[24]
*366 wbs_dat_i[25]
*367 wbs_dat_i[26]
*368 wbs_dat_i[27]
*369 wbs_dat_i[28]
*370 wbs_dat_i[29]
*371 wbs_dat_i[2]
*372 wbs_dat_i[30]
*373 wbs_dat_i[31]
*374 wbs_dat_i[3]
*375 wbs_dat_i[4]
*376 wbs_dat_i[5]
*377 wbs_dat_i[6]
*378 wbs_dat_i[7]
*379 wbs_dat_i[8]
*380 wbs_dat_i[9]
*381 wbs_dat_o[0]
*382 wbs_dat_o[10]
*383 wbs_dat_o[11]
*384 wbs_dat_o[12]
*385 wbs_dat_o[13]
*386 wbs_dat_o[14]
*387 wbs_dat_o[15]
*388 wbs_dat_o[16]
*389 wbs_dat_o[17]
*390 wbs_dat_o[18]
*391 wbs_dat_o[19]
*392 wbs_dat_o[1]
*393 wbs_dat_o[20]
*394 wbs_dat_o[21]
*395 wbs_dat_o[22]
*396 wbs_dat_o[23]
*397 wbs_dat_o[24]
*398 wbs_dat_o[25]
*399 wbs_dat_o[26]
*400 wbs_dat_o[27]
*401 wbs_dat_o[28]
*402 wbs_dat_o[29]
*403 wbs_dat_o[2]
*404 wbs_dat_o[30]
*405 wbs_dat_o[31]
*406 wbs_dat_o[3]
*407 wbs_dat_o[4]
*408 wbs_dat_o[5]
*409 wbs_dat_o[6]
*410 wbs_dat_o[7]
*411 wbs_dat_o[8]
*412 wbs_dat_o[9]
*413 wbs_sel_i[0]
*414 wbs_sel_i[1]
*415 wbs_sel_i[2]
*416 wbs_sel_i[3]
*417 wbs_stb_i
*418 wbs_we_i
*419 DigitalClock
*420 anan_logo
*421 mprj

*PORTS
io_in[0] I
io_in[10] I
io_in[11] I
io_in[12] I
io_in[13] I
io_in[14] I
io_in[15] I
io_in[16] I
io_in[17] I
io_in[18] I
io_in[19] I
io_in[1] I
io_in[20] I
io_in[21] I
io_in[22] I
io_in[23] I
io_in[24] I
io_in[25] I
io_in[26] I
io_in[27] I
io_in[28] I
io_in[29] I
io_in[2] I
io_in[30] I
io_in[31] I
io_in[32] I
io_in[33] I
io_in[34] I
io_in[35] I
io_in[36] I
io_in[37] I
io_in[3] I
io_in[4] I
io_in[5] I
io_in[6] I
io_in[7] I
io_in[8] I
io_in[9] I
io_oeb[0] O
io_oeb[10] O
io_oeb[11] O
io_oeb[12] O
io_oeb[13] O
io_oeb[14] O
io_oeb[15] O
io_oeb[16] O
io_oeb[17] O
io_oeb[18] O
io_oeb[19] O
io_oeb[1] O
io_oeb[20] O
io_oeb[21] O
io_oeb[22] O
io_oeb[23] O
io_oeb[24] O
io_oeb[25] O
io_oeb[26] O
io_oeb[27] O
io_oeb[28] O
io_oeb[29] O
io_oeb[2] O
io_oeb[30] O
io_oeb[31] O
io_oeb[32] O
io_oeb[33] O
io_oeb[34] O
io_oeb[35] O
io_oeb[36] O
io_oeb[37] O
io_oeb[3] O
io_oeb[4] O
io_oeb[5] O
io_oeb[6] O
io_oeb[7] O
io_oeb[8] O
io_oeb[9] O
io_out[0] O
io_out[10] O
io_out[11] O
io_out[12] O
io_out[13] O
io_out[14] O
io_out[15] O
io_out[16] O
io_out[17] O
io_out[18] O
io_out[19] O
io_out[1] O
io_out[20] O
io_out[21] O
io_out[22] O
io_out[23] O
io_out[24] O
io_out[25] O
io_out[26] O
io_out[27] O
io_out[28] O
io_out[29] O
io_out[2] O
io_out[30] O
io_out[31] O
io_out[32] O
io_out[33] O
io_out[34] O
io_out[35] O
io_out[36] O
io_out[37] O
io_out[3] O
io_out[4] O
io_out[5] O
io_out[6] O
io_out[7] O
io_out[8] O
io_out[9] O
la_data_in[0] I
la_data_in[10] I
la_data_in[11] I
la_data_in[12] I
la_data_in[13] I
la_data_in[14] I
la_data_in[15] I
la_data_in[16] I
la_data_in[17] I
la_data_in[18] I
la_data_in[19] I
la_data_in[1] I
la_data_in[20] I
la_data_in[21] I
la_data_in[22] I
la_data_in[23] I
la_data_in[24] I
la_data_in[25] I
la_data_in[26] I
la_data_in[27] I
la_data_in[28] I
la_data_in[29] I
la_data_in[2] I
la_data_in[30] I
la_data_in[31] I
la_data_in[32] I
la_data_in[33] I
la_data_in[34] I
la_data_in[35] I
la_data_in[36] I
la_data_in[37] I
la_data_in[38] I
la_data_in[39] I
la_data_in[3] I
la_data_in[40] I
la_data_in[41] I
la_data_in[42] I
la_data_in[43] I
la_data_in[44] I
la_data_in[45] I
la_data_in[46] I
la_data_in[47] I
la_data_in[48] I
la_data_in[49] I
la_data_in[4] I
la_data_in[50] I
la_data_in[51] I
la_data_in[52] I
la_data_in[53] I
la_data_in[54] I
la_data_in[55] I
la_data_in[56] I
la_data_in[57] I
la_data_in[58] I
la_data_in[59] I
la_data_in[5] I
la_data_in[60] I
la_data_in[61] I
la_data_in[62] I
la_data_in[63] I
la_data_in[6] I
la_data_in[7] I
la_data_in[8] I
la_data_in[9] I
la_data_out[0] O
la_data_out[10] O
la_data_out[11] O
la_data_out[12] O
la_data_out[13] O
la_data_out[14] O
la_data_out[15] O
la_data_out[16] O
la_data_out[17] O
la_data_out[18] O
la_data_out[19] O
la_data_out[1] O
la_data_out[20] O
la_data_out[21] O
la_data_out[22] O
la_data_out[23] O
la_data_out[24] O
la_data_out[25] O
la_data_out[26] O
la_data_out[27] O
la_data_out[28] O
la_data_out[29] O
la_data_out[2] O
la_data_out[30] O
la_data_out[31] O
la_data_out[32] O
la_data_out[33] O
la_data_out[34] O
la_data_out[35] O
la_data_out[36] O
la_data_out[37] O
la_data_out[38] O
la_data_out[39] O
la_data_out[3] O
la_data_out[40] O
la_data_out[41] O
la_data_out[42] O
la_data_out[43] O
la_data_out[44] O
la_data_out[45] O
la_data_out[46] O
la_data_out[47] O
la_data_out[48] O
la_data_out[49] O
la_data_out[4] O
la_data_out[50] O
la_data_out[51] O
la_data_out[52] O
la_data_out[53] O
la_data_out[54] O
la_data_out[55] O
la_data_out[56] O
la_data_out[57] O
la_data_out[58] O
la_data_out[59] O
la_data_out[5] O
la_data_out[60] O
la_data_out[61] O
la_data_out[62] O
la_data_out[63] O
la_data_out[6] O
la_data_out[7] O
la_data_out[8] O
la_data_out[9] O
la_oenb[0] I
la_oenb[10] I
la_oenb[11] I
la_oenb[12] I
la_oenb[13] I
la_oenb[14] I
la_oenb[15] I
la_oenb[16] I
la_oenb[17] I
la_oenb[18] I
la_oenb[19] I
la_oenb[1] I
la_oenb[20] I
la_oenb[21] I
la_oenb[22] I
la_oenb[23] I
la_oenb[24] I
la_oenb[25] I
la_oenb[26] I
la_oenb[27] I
la_oenb[28] I
la_oenb[29] I
la_oenb[2] I
la_oenb[30] I
la_oenb[31] I
la_oenb[32] I
la_oenb[33] I
la_oenb[34] I
la_oenb[35] I
la_oenb[36] I
la_oenb[37] I
la_oenb[38] I
la_oenb[39] I
la_oenb[3] I
la_oenb[40] I
la_oenb[41] I
la_oenb[42] I
la_oenb[43] I
la_oenb[44] I
la_oenb[45] I
la_oenb[46] I
la_oenb[47] I
la_oenb[48] I
la_oenb[49] I
la_oenb[4] I
la_oenb[50] I
la_oenb[51] I
la_oenb[52] I
la_oenb[53] I
la_oenb[54] I
la_oenb[55] I
la_oenb[56] I
la_oenb[57] I
la_oenb[58] I
la_oenb[59] I
la_oenb[5] I
la_oenb[60] I
la_oenb[61] I
la_oenb[62] I
la_oenb[63] I
la_oenb[6] I
la_oenb[7] I
la_oenb[8] I
la_oenb[9] I
user_clock2 I
user_irq[0] O
user_irq[1] O
user_irq[2] O
wb_clk_i I
wb_rst_i I
wbs_ack_o O
wbs_adr_i[0] I
wbs_adr_i[10] I
wbs_adr_i[11] I
wbs_adr_i[12] I
wbs_adr_i[13] I
wbs_adr_i[14] I
wbs_adr_i[15] I
wbs_adr_i[16] I
wbs_adr_i[17] I
wbs_adr_i[18] I
wbs_adr_i[19] I
wbs_adr_i[1] I
wbs_adr_i[20] I
wbs_adr_i[21] I
wbs_adr_i[22] I
wbs_adr_i[23] I
wbs_adr_i[24] I
wbs_adr_i[25] I
wbs_adr_i[26] I
wbs_adr_i[27] I
wbs_adr_i[28] I
wbs_adr_i[29] I
wbs_adr_i[2] I
wbs_adr_i[30] I
wbs_adr_i[31] I
wbs_adr_i[3] I
wbs_adr_i[4] I
wbs_adr_i[5] I
wbs_adr_i[6] I
wbs_adr_i[7] I
wbs_adr_i[8] I
wbs_adr_i[9] I
wbs_cyc_i I
wbs_dat_i[0] I
wbs_dat_i[10] I
wbs_dat_i[11] I
wbs_dat_i[12] I
wbs_dat_i[13] I
wbs_dat_i[14] I
wbs_dat_i[15] I
wbs_dat_i[16] I
wbs_dat_i[17] I
wbs_dat_i[18] I
wbs_dat_i[19] I
wbs_dat_i[1] I
wbs_dat_i[20] I
wbs_dat_i[21] I
wbs_dat_i[22] I
wbs_dat_i[23] I
wbs_dat_i[24] I
wbs_dat_i[25] I
wbs_dat_i[26] I
wbs_dat_i[27] I
wbs_dat_i[28] I
wbs_dat_i[29] I
wbs_dat_i[2] I
wbs_dat_i[30] I
wbs_dat_i[31] I
wbs_dat_i[3] I
wbs_dat_i[4] I
wbs_dat_i[5] I
wbs_dat_i[6] I
wbs_dat_i[7] I
wbs_dat_i[8] I
wbs_dat_i[9] I
wbs_dat_o[0] O
wbs_dat_o[10] O
wbs_dat_o[11] O
wbs_dat_o[12] O
wbs_dat_o[13] O
wbs_dat_o[14] O
wbs_dat_o[15] O
wbs_dat_o[16] O
wbs_dat_o[17] O
wbs_dat_o[18] O
wbs_dat_o[19] O
wbs_dat_o[1] O
wbs_dat_o[20] O
wbs_dat_o[21] O
wbs_dat_o[22] O
wbs_dat_o[23] O
wbs_dat_o[24] O
wbs_dat_o[25] O
wbs_dat_o[26] O
wbs_dat_o[27] O
wbs_dat_o[28] O
wbs_dat_o[29] O
wbs_dat_o[2] O
wbs_dat_o[30] O
wbs_dat_o[31] O
wbs_dat_o[3] O
wbs_dat_o[4] O
wbs_dat_o[5] O
wbs_dat_o[6] O
wbs_dat_o[7] O
wbs_dat_o[8] O
wbs_dat_o[9] O
wbs_sel_i[0] I
wbs_sel_i[1] I
wbs_sel_i[2] I
wbs_sel_i[3] I
wbs_stb_i I
wbs_we_i I

*D_NET *1 0.764726
*CONN
*P io_in[0] I
*I *421:io_in[0] I *D user_proj_example
*CAP
1 io_in[0] 0.00111227
2 *421:io_in[0] 0
3 *1:27 0.0116701
4 *1:17 0.0154566
5 *1:15 0.0037865
6 *1:13 0.219366
7 *1:11 0.219366
8 *1:9 0.0066259
9 *1:7 0.00773817
10 *1:13 *125:21 0.205824
11 *1:13 *273:15 0.0380143
12 *1:17 *421:la_oenb[18] 0.00143569
13 *1:17 *116:21 0.0236674
14 *1:27 *421:io_in[8] 0.000489578
15 *1:27 *421:la_data_in[10] 0.000500867
16 *1:27 *116:27 0.00121584
17 *1:27 *124:27 0.00135817
18 *1:27 *141:41 0
19 *1:27 *248:41 0.00216001
20 *1:27 *316:9 0.00156478
21 *1:27 *327:9 0.00118381
22 *1:27 *342:9 0.000142161
23 *1:27 *371:17 0.00109846
24 *1:27 *403:23 0.000950977
*RES
1 io_in[0] *1:7 12.825 
2 *1:7 *1:9 53.5339 
3 *1:9 *1:11 4.5 
4 *1:11 *1:13 361.947 
5 *1:13 *1:15 4.5 
6 *1:15 *1:17 60.2614 
7 *1:17 *1:27 46.2484 
8 *1:27 *421:io_in[0] 4.5 
*END

*D_NET *12 0.4141
*CONN
*P io_in[1] I
*I *421:io_in[1] I *D user_proj_example
*CAP
1 io_in[1] 0.00169276
2 *421:io_in[1] 0.000185091
3 *12:17 0.00500521
4 *12:15 0.00482012
5 *12:13 0.0684719
6 *12:11 0.0701646
7 *421:io_in[1] *421:io_in[8] 0.000430731
8 *421:io_in[1] *371:17 0.000100657
9 *421:io_in[1] *417:11 0.000397963
10 *12:11 *110:21 0.000116362
11 *12:11 *111:27 0.000562875
12 *12:13 *70:17 0.0192851
13 *12:13 *104:17 0.0236564
14 *12:13 *107:15 0
15 *12:13 *147:17 0
16 *12:13 *159:17 0.00473377
17 *12:13 *249:19 0.18383
18 *12:13 *263:17 0
19 *12:17 *33:17 0.03053
20 *12:17 *104:21 0.000115829
*RES
1 io_in[1] *12:11 23.5896 
2 *12:11 *12:13 392.34 
3 *12:13 *12:15 4.5 
4 *12:15 *12:17 75.9246 
5 *12:17 *421:io_in[1] 12.195 
*END

*D_NET *23 0.286714
*CONN
*P io_in[2] I
*I *421:io_in[2] I *D user_proj_example
*CAP
1 io_in[2] 0.00134989
2 *421:io_in[2] 0.000226251
3 *23:27 0.00794886
4 *23:17 0.022108
5 *23:15 0.0143854
6 *23:13 0.0946216
7 *23:11 0.0959715
8 *421:io_in[2] *348:11 0.000266324
9 *23:11 *111:27 0.000131289
10 *23:17 *126:29 0.0241917
11 *23:17 *260:23 0
12 *23:27 *421:io_in[5] 0.0005355
13 *23:27 *421:io_in[9] 0.000379749
14 *23:27 *421:la_data_in[0] 0.000708717
15 *23:27 *421:la_data_in[12] 0.000872987
16 *23:27 *421:la_data_in[1] 0.000643797
17 *23:27 *421:la_data_in[27] 0.000467016
18 *23:27 *421:la_data_in[29] 0.000138282
19 *23:27 *421:la_data_in[36] 0.00168709
20 *23:27 *421:la_data_in[42] 0.0141078
21 *23:27 *121:33 0.000560293
22 *23:27 *122:25 0.000382207
23 *23:27 *126:39 0.00055257
24 *23:27 *131:47 0.00201789
25 *23:27 *133:47 0.000250954
26 *23:27 *135:35 0.00192878
27 *23:27 *141:41 0.000279436
*RES
1 io_in[2] *23:11 18.9804 
2 *23:11 *23:13 358.358 
3 *23:13 *23:15 4.5 
4 *23:15 *23:17 136.633 
5 *23:17 *23:27 47.1837 
6 *23:27 *421:io_in[2] 6.885 
*END

*D_NET *24 0.34488
*CONN
*P io_in[30] I
*I *421:io_in[8] I *D user_proj_example
*CAP
1 io_in[30] 0.00240847
2 *421:io_in[8] 0.00123798
3 *24:9 0.00887335
4 *24:7 0.0100438
5 *421:io_in[8] *421:io_in[14] 0.000453784
6 *421:io_in[8] *314:21 2.1847e-05
7 *421:io_in[8] *371:17 0.000980957
8 *421:io_in[8] *403:23 0.000719076
9 *421:io_in[8] *417:11 0.000219187
10 *24:9 *29:9 0.0736557
11 *24:9 *69:13 0.205015
12 *24:9 *313:5 0.0403302
13 *421:io_in[1] *421:io_in[8] 0.000430731
14 *1:27 *421:io_in[8] 0.000489578
*RES
1 io_in[30] *24:7 21.645 
2 *24:7 *24:9 530.55 
3 *24:9 *421:io_in[8] 25.83 
*END

*D_NET *25 0.222185
*CONN
*P io_in[31] I
*I *421:io_in[9] I *D user_proj_example
*CAP
1 io_in[31] 0.000877205
2 *421:io_in[9] 0.00146904
3 *25:17 0.0337483
4 *25:15 0.0330388
5 *25:9 0.00653328
6 *25:7 0.00665102
7 *421:io_in[9] *421:io_in[10] 0.00158675
8 *421:io_in[9] *421:io_in[14] 0
9 *421:io_in[9] *421:io_in[15] 0.00513202
10 *421:io_in[9] *421:io_in[4] 0.00247207
11 *421:io_in[9] *421:io_in[5] 0.000820684
12 *421:io_in[9] *421:io_in[6] 0.000161838
13 *421:io_in[9] *421:la_data_in[0] 7.53687e-05
14 *421:io_in[9] *418:13 0
15 *25:9 *66:17 0.00798277
16 *25:9 *100:26 0.000666689
17 *25:9 *101:21 0.00150072
18 *25:17 *26:17 0.0103515
19 *25:17 *67:21 0.0980068
20 *25:17 *103:21 0.0107303
21 *23:27 *421:io_in[9] 0.000379749
*RES
1 io_in[31] *25:7 11.205 
2 *25:7 *25:9 67.95 
3 *25:9 *25:15 14.13 
4 *25:15 *25:17 397.35 
5 *25:17 *421:io_in[9] 35.595 
*END

*D_NET *26 0.198685
*CONN
*P io_in[32] I
*I *421:io_in[10] I *D user_proj_example
*CAP
1 io_in[32] 0.00084084
2 *421:io_in[10] 0.00086088
3 *26:17 0.00523939
4 *26:15 0.00522428
5 *26:9 0.0288422
6 *26:7 0.0288373
7 *421:io_in[10] *421:io_in[14] 0
8 *421:io_in[10] *314:21 0.000433705
9 *26:9 *30:9 0.0261451
10 *26:9 *66:17 0.0711654
11 *26:9 *101:21 0.018882
12 *26:9 *107:19 0.00027551
13 *421:io_in[9] *421:io_in[10] 0.00158675
14 *25:17 *26:17 0.0103515
*RES
1 io_in[32] *26:7 10.845 
2 *26:7 *26:9 338.67 
3 *26:9 *26:15 14.85 
4 *26:15 *26:17 58.41 
5 *26:17 *421:io_in[10] 19.395 
*END

*D_NET *27 0.186906
*CONN
*P io_in[33] I
*I *421:io_in[11] I *D user_proj_example
*CAP
1 io_in[33] 0.002888
2 *421:io_in[11] 5.48519e-05
3 *27:9 0.0212731
4 *27:7 0.0241063
5 *27:9 *421:io_in[12] 0
6 *27:9 *65:13 0
7 *27:9 *314:21 3.78027e-05
8 *27:9 *360:37 0.127778
9 *27:9 *417:13 0.0107679
*RES
1 io_in[33] *27:7 25.065 
2 *27:7 *27:9 325.35 
3 *27:9 *421:io_in[11] 0.405 
*END

*D_NET *28 0.0784618
*CONN
*P io_in[34] I
*I *421:io_in[12] I *D user_proj_example
*CAP
1 io_in[34] 0.00310371
2 *421:io_in[12] 0.0332812
3 *28:7 0.0363849
4 *421:io_in[12] *421:io_in[13] 0.000323154
5 *421:io_in[12] *104:21 0.00536885
6 *421:io_in[12] *349:21 0
7 *27:9 *421:io_in[12] 0
*RES
1 io_in[34] *28:7 26.505 
2 *28:7 *421:io_in[12] 257.265 
*END

*D_NET *29 0.117924
*CONN
*P io_in[35] I
*I *421:io_in[13] I *D user_proj_example
*CAP
1 io_in[35] 0.00246496
2 *421:io_in[13] 0.00104632
3 *29:9 0.00286386
4 *29:7 0.0042825
5 *421:io_in[13] *348:13 0
6 *421:io_in[13] *349:21 3.54446e-05
7 *421:io_in[13] *360:35 0
8 *29:9 *313:5 0.0332524
9 *421:io_in[12] *421:io_in[13] 0.000323154
10 *24:9 *29:9 0.0736557
*RES
1 io_in[35] *29:7 21.825 
2 *29:7 *29:9 187.29 
3 *29:9 *421:io_in[13] 17.055 
*END

*D_NET *30 0.0791085
*CONN
*P io_in[36] I
*I *421:io_in[14] I *D user_proj_example
*CAP
1 io_in[36] 0.000793064
2 *421:io_in[14] 0.0024917
3 *30:9 0.0106507
4 *30:7 0.00895209
5 *421:io_in[14] wbs_ack_o 0
6 *30:9 *31:9 0.0216637
7 *30:9 *100:18 0.00353798
8 *30:9 *101:21 0.000258638
9 *30:9 *107:19 0.00416172
10 *421:io_in[10] *421:io_in[14] 0
11 *421:io_in[8] *421:io_in[14] 0.000453784
12 *421:io_in[9] *421:io_in[14] 0
13 *26:9 *30:9 0.0261451
*RES
1 io_in[36] *30:7 10.665 
2 *30:7 *30:9 123.21 
3 *30:9 *421:io_in[14] 28.125 
*END

*D_NET *31 0.0415219
*CONN
*P io_in[37] I
*I *421:io_in[15] I *D user_proj_example
*CAP
1 io_in[37] 0.000799722
2 *421:io_in[15] 0.00200797
3 *31:9 0.00591718
4 *31:7 0.00470893
5 *421:io_in[15] wbs_ack_o 0.00050759
6 *421:io_in[15] *348:11 0
7 *31:9 *107:19 0.000784741
8 *421:io_in[9] *421:io_in[15] 0.00513202
9 *30:9 *31:9 0.0216637
*RES
1 io_in[37] *31:7 10.845 
2 *31:7 *31:9 57.33 
3 *31:9 *421:io_in[15] 31.095 
*END

*D_NET *32 0.25702
*CONN
*P io_in[3] I
*I *421:io_in[3] I *D user_proj_example
*CAP
1 io_in[3] 0.00129009
2 *421:io_in[3] 7.94037e-05
3 *32:17 0.0244196
4 *32:15 0.0243402
5 *32:13 0.102798
6 *32:11 0.104088
7 *32:11 *111:27 5.40946e-06
*RES
1 io_in[3] *32:11 18.0096 
2 *32:11 *32:13 389.896 
3 *32:13 *32:15 4.5 
4 *32:15 *32:17 196.885 
5 *32:17 *421:io_in[3] 9.585 
*END

*D_NET *33 0.4135
*CONN
*P io_in[4] I
*I *421:io_in[4] I *D user_proj_example
*CAP
1 io_in[4] 0.00104753
2 *421:io_in[4] 0.000302759
3 *33:17 0.00129398
4 *33:15 0.000991216
5 *33:13 0.103624
6 *33:11 0.103624
7 *33:9 0.00192709
8 *33:7 0.00297462
9 *421:io_in[4] *421:io_in[6] 0.00239148
10 *421:io_in[4] *417:11 0.000454535
11 *33:9 *35:9 0.0504032
12 *33:9 *70:21 0.0624055
13 *33:9 *110:21 0.00964273
14 *33:13 *100:14 0
15 *33:17 *35:17 0.0353251
16 *33:17 *104:21 0.000329026
17 *33:17 *349:21 0.0037608
18 *421:io_in[9] *421:io_in[4] 0.00247207
19 *12:17 *33:17 0.03053
*RES
1 io_in[4] *33:7 12.285 
2 *33:7 *33:9 175.998 
3 *33:9 *33:11 4.5 
4 *33:11 *33:13 392.722 
5 *33:13 *33:15 4.5 
6 *33:15 *33:17 88.2418 
7 *33:17 *421:io_in[4] 17.955 
*END

*D_NET *34 0.300433
*CONN
*P io_in[5] I
*I *421:io_in[5] I *D user_proj_example
*CAP
1 io_in[5] 0.00128709
2 *421:io_in[5] 0.0014098
3 *34:17 0.037904
4 *34:15 0.0364942
5 *34:13 0.100333
6 *34:11 0.10162
7 *421:io_in[5] *421:io_in[6] 0.000527676
8 *421:io_in[5] *421:la_data_in[0] 0.00078369
9 *421:io_in[5] *421:la_data_in[13] 0.00276488
10 *421:io_in[5] *121:33 0.000221294
11 *421:io_in[5] *122:25 0.00340287
12 *421:io_in[5] *381:28 0
13 *421:io_in[5] *403:23 0
14 *421:io_in[5] *417:11 0.000194424
15 *34:11 *111:27 4.43342e-05
16 *34:17 *421:la_data_in[21] 0
17 *34:17 *421:la_data_in[22] 0.00244172
18 *34:17 *115:21 0.0096469
19 *421:io_in[9] *421:io_in[5] 0.000820684
20 *23:27 *421:io_in[5] 0.0005355
*RES
1 io_in[5] *34:11 18.3439 
2 *34:11 *34:13 380.122 
3 *34:13 *34:15 4.5 
4 *34:15 *34:17 327.301 
5 *34:17 *421:io_in[5] 33.075 
*END

*D_NET *35 0.441564
*CONN
*P io_in[6] I
*I *421:io_in[6] I *D user_proj_example
*CAP
1 io_in[6] 0.00106911
2 *421:io_in[6] 0.000970623
3 *35:17 0.0129607
4 *35:15 0.0119901
5 *35:13 0.103526
6 *35:11 0.103526
7 *35:9 0.00855944
8 *35:7 0.00962855
9 *421:io_in[6] *403:23 0
10 *421:io_in[6] *418:13 0
11 *35:9 *110:21 0.084676
12 *35:9 *111:27 0.00798036
13 *35:17 *104:21 0
14 *35:17 *348:13 0.00606404
15 *35:17 *349:21 0.0018039
16 *421:io_in[4] *421:io_in[6] 0.00239148
17 *421:io_in[5] *421:io_in[6] 0.000527676
18 *421:io_in[9] *421:io_in[6] 0.000161838
19 *33:9 *35:9 0.0504032
20 *33:17 *35:17 0.0353251
*RES
1 io_in[6] *35:7 12.465 
2 *35:7 *35:9 252.235 
3 *35:9 *35:11 4.5 
4 *35:11 *35:13 392.569 
5 *35:13 *35:15 4.5 
6 *35:15 *35:17 139.085 
7 *35:17 *421:io_in[6] 20.205 
*END

*D_NET *36 0.318671
*CONN
*P io_in[7] I
*I *421:io_in[7] I *D user_proj_example
*CAP
1 io_in[7] 0.00137959
2 *421:io_in[7] 0.000120531
3 *36:17 0.0555308
4 *36:15 0.0554103
5 *36:13 0.102161
6 *36:11 0.103541
7 *421:io_in[7] *314:29 0.00032797
8 *421:io_in[7] *360:31 0.000144938
9 *36:17 *418:13 5.47591e-05
*RES
1 io_in[7] *36:11 19.0768 
2 *36:11 *36:13 387.682 
3 *36:13 *36:15 4.5 
4 *36:15 *36:17 450.588 
5 *36:17 *421:io_in[7] 10.575 
*END

*D_NET *39 0.451154
*CONN
*P io_oeb[0] O
*I *421:io_oeb[0] O *D user_proj_example
*CAP
1 io_oeb[0] 0.00354797
2 *421:io_oeb[0] 0.000379833
3 *39:13 0.0562885
4 *39:11 0.0527405
5 *39:9 0.0349641
6 *39:7 0.0353439
7 *39:7 *313:27 3.69748e-05
8 *39:9 *63:9 0.00212365
9 *39:9 *65:9 0.00944943
10 *39:9 *71:9 0.20929
11 *39:9 *72:17 0
12 *39:9 *156:17 0
13 *39:9 *348:17 0.000183112
14 *39:13 *71:13 0.0468064
*RES
1 *421:io_oeb[0] *39:7 6.705 
2 *39:7 *39:9 548.01 
3 *39:9 *39:11 4.5 
4 *39:11 *39:13 518.49 
5 *39:13 io_oeb[0] 31.725 
*END

*D_NET *40 0.117972
*CONN
*P io_oeb[10] O
*I *419:hours_oeb[2] O *D DigitalClock
*CAP
1 io_oeb[10] 0.022576
2 *419:hours_oeb[2] 0.000703961
3 *40:11 0.022576
4 *40:9 0.00300302
5 *40:7 0.00370698
6 *40:9 *78:9 0.0405863
7 *40:9 *79:9 0.0248193
*RES
1 *419:hours_oeb[2] *40:7 10.125 
2 *40:7 *40:9 103.77 
3 *40:9 *40:11 4.5 
4 *40:11 io_oeb[10] 180.585 
*END

*D_NET *41 0.0704897
*CONN
*P io_oeb[11] O
*I *419:hours_oeb[3] O *D DigitalClock
*CAP
1 io_oeb[11] 0.0225329
2 *419:hours_oeb[3] 0.000747119
3 *41:11 0.0225329
4 *41:9 0.00314028
5 *41:7 0.00388739
6 *41:9 *79:9 0.0174647
7 *41:9 *80:11 0.00018452
*RES
1 *419:hours_oeb[3] *41:7 10.485 
2 *41:7 *41:9 46.71 
3 *41:9 *41:11 4.5 
4 *41:11 io_oeb[11] 180.225 
*END

*D_NET *42 0.0492098
*CONN
*P io_oeb[12] O
*I *419:hours_oeb[4] O *D DigitalClock
*CAP
1 io_oeb[12] 0.0224559
2 *419:hours_oeb[4] 0.00202611
3 *42:11 0.024482
4 *42:11 *81:9 0.000245848
*RES
1 *419:hours_oeb[4] *42:11 26.055 
2 *42:11 io_oeb[12] 179.865 
*END

*D_NET *43 0.0792975
*CONN
*P io_oeb[13] O
*I *419:hours_oeb[5] O *D DigitalClock
*CAP
1 io_oeb[13] 0.0226825
2 *419:hours_oeb[5] 0.000639223
3 *43:11 0.0226825
4 *43:9 0.00558813
5 *43:7 0.00622735
6 *43:9 *55:23 0
7 *43:9 *81:9 0.0187553
8 *43:9 *83:9 0.00272251
*RES
1 *419:hours_oeb[5] *43:7 9.585 
2 *43:7 *43:9 67.95 
3 *43:9 *43:11 4.5 
4 *43:11 io_oeb[13] 181.125 
*END

*D_NET *45 0.0899716
*CONN
*P io_oeb[15] O
*I *419:minutes_oeb[0] O *D DigitalClock
*CAP
1 io_oeb[15] 0.0010524
2 *419:minutes_oeb[0] 0.00100616
3 *45:13 0.00580892
4 *45:11 0.00475652
5 *45:9 0.0156797
6 *45:7 0.0166858
7 *45:9 *86:9 0
8 *45:9 *89:9 0.00229638
9 *45:13 io_out[16] 0.00658815
10 *45:13 *83:13 0.0360976
*RES
1 *419:minutes_oeb[0] *45:7 12.285 
2 *45:7 *45:9 128.43 
3 *45:9 *45:11 4.5 
4 *45:11 *45:13 89.91 
5 *45:13 io_oeb[15] 12.645 
*END

*D_NET *46 0.0667036
*CONN
*P io_oeb[16] O
*I *419:minutes_oeb[1] O *D DigitalClock
*CAP
1 io_oeb[16] 0.00773071
2 *419:minutes_oeb[1] 0.000197677
3 *46:21 0.00811868
4 *46:9 0.00208563
5 *46:7 0.00189534
6 *46:9 *48:9 0.00340849
7 *46:9 *52:9 0.0153013
8 *46:9 *57:9 0.00154846
9 *46:9 *85:9 0.00453476
10 *46:9 *90:9 0.0165583
11 *46:21 io_oeb[24] 0.00123069
12 *46:21 *48:13 0.00409352
*RES
1 *419:minutes_oeb[1] *46:7 5.985 
2 *46:7 *46:9 71.55 
3 *46:9 *46:21 28.98 
4 *46:21 io_oeb[16] 58.005 
*END

*D_NET *47 0.119494
*CONN
*P io_oeb[17] O
*I *419:minutes_oeb[2] O *D DigitalClock
*CAP
1 io_oeb[17] 0.00173561
2 *419:minutes_oeb[2] 0.000536345
3 *47:17 0.00817647
4 *47:15 0.00644087
5 *47:13 0.00770871
6 *47:11 0.00770871
7 *47:9 0.00268701
8 *47:7 0.00322335
9 *47:9 *49:9 0.0211405
10 *47:9 *55:23 0.000549772
11 *47:9 *83:9 0.000364906
12 *47:9 *91:9 0.0147501
13 *47:9 *94:15 0.000109299
14 *47:13 *48:13 0
15 *47:13 *87:13 0.0443625
16 *47:13 *95:13 0
*RES
1 *419:minutes_oeb[2] *47:7 8.505 
2 *47:7 *47:9 66.87 
3 *47:9 *47:11 4.5 
4 *47:11 *47:13 115.11 
5 *47:13 *47:15 4.5 
6 *47:15 *47:17 47.97 
7 *47:17 io_oeb[17] 21.735 
*END

*D_NET *48 0.169448
*CONN
*P io_oeb[18] O
*I *419:minutes_oeb[3] O *D DigitalClock
*CAP
1 io_oeb[18] 0.00775676
2 *419:minutes_oeb[3] 0.000277393
3 *48:15 0.00775676
4 *48:13 0.00596133
5 *48:11 0.00596133
6 *48:9 0.00416133
7 *48:7 0.00443872
8 *48:9 *52:9 0.0153831
9 *48:9 *57:9 0.00168696
10 *48:13 io_oeb[24] 0.0192298
11 *48:13 *95:13 0.0893326
12 *46:9 *48:9 0.00340849
13 *46:21 *48:13 0.00409352
14 *47:13 *48:13 0
*RES
1 *419:minutes_oeb[3] *48:7 6.345 
2 *48:7 *48:9 58.77 
3 *48:9 *48:11 4.5 
4 *48:11 *48:13 223.47 
5 *48:13 *48:15 4.5 
6 *48:15 io_oeb[18] 58.365 
*END

*D_NET *49 0.138188
*CONN
*P io_oeb[19] O
*I *419:minutes_oeb[4] O *D DigitalClock
*CAP
1 io_oeb[19] 0.00645257
2 *419:minutes_oeb[4] 0.00059225
3 *49:15 0.00645257
4 *49:13 0.0415792
5 *49:11 0.0415792
6 *49:9 0.00108972
7 *49:7 0.00168197
8 *49:9 *54:9 0.0140892
9 *49:9 *55:23 0.00010816
10 *49:9 *83:9 0.00168059
11 *49:9 *91:9 0.00138974
12 *49:9 *94:15 0.000351941
13 *47:9 *49:9 0.0211405
*RES
1 *419:minutes_oeb[4] *49:7 8.685 
2 *49:7 *49:9 61.83 
3 *49:9 *49:11 4.5 
4 *49:11 *49:13 332.19 
5 *49:13 *49:15 4.5 
6 *49:15 io_oeb[19] 48.825 
*END

*D_NET *50 0.587133
*CONN
*P io_oeb[1] O
*I *421:io_oeb[1] O *D user_proj_example
*CAP
1 io_oeb[1] 0.00224367
2 *421:io_oeb[1] 0
3 *50:10 0.0359542
4 *50:8 0.0337105
5 *50:6 0.00171688
6 *50:4 0.00171688
7 *50:6 *67:15 0.000246422
8 *50:6 *72:17 0
9 *50:6 *73:6 0.217619
10 *50:6 *88:8 0.00205199
11 *50:6 *88:10 0.205158
12 *50:6 *105:6 0.00055429
13 *50:6 *349:25 0.00599661
14 *50:10 *88:14 0.0801652
*RES
1 *421:io_oeb[1] *50:4 4.5 
2 *50:4 *50:6 542.97 
3 *50:6 *50:8 4.5 
4 *50:8 *50:10 451.89 
5 *50:10 io_oeb[1] 20.565 
*END

*D_NET *51 0.162041
*CONN
*P io_oeb[20] O
*I *419:minutes_oeb[5] O *D DigitalClock
*CAP
1 io_oeb[20] 0.00535879
2 *419:minutes_oeb[5] 0.000173685
3 *51:13 0.0595015
4 *51:11 0.0541427
5 *51:9 0.00108635
6 *51:7 0.00126004
7 *51:9 *53:9 0.019608
8 *51:9 *85:9 0
9 *51:9 *87:9 0.0180927
10 *51:9 *92:9 0.00281686
*RES
1 *419:minutes_oeb[5] *51:7 5.625 
2 *51:7 *51:9 62.37 
3 *51:9 *51:11 4.5 
4 *51:11 *51:13 433.89 
5 *51:13 io_oeb[20] 45.225 
*END

*D_NET *52 0.184736
*CONN
*P io_oeb[21] O
*I *419:seconds_oeb[0] O *D DigitalClock
*CAP
1 io_oeb[21] 0.004982
2 *419:seconds_oeb[0] 0.000272984
3 *52:13 0.0726288
4 *52:11 0.0676468
5 *52:9 0.00169387
6 *52:7 0.00196686
7 *52:9 *57:9 0.00110813
8 *52:9 *90:9 0.0035791
9 *52:9 *93:11 0.000172756