*SPEF "ieee 1481-1999"
*DESIGN "DigitalClock"
*DATE "11:11:11 Fri 11 11, 1111"
*VENDOR "OpenRCX"
*PROGRAM "Parallel Extraction"
*VERSION "1.0"
*DESIGN_FLOW "NAME_SCOPE LOCAL" "PIN_CAP NONE"
*DIVIDER /
*DELIMITER :
*BUS_DELIMITER []
*T_UNIT 1 NS
*C_UNIT 1 PF
*R_UNIT 1 OHM
*L_UNIT 1 HENRY

*NAME_MAP
*1 clk
*2 hours[0]
*3 hours[1]
*4 hours[2]
*5 hours[3]
*6 hours[4]
*7 hours[5]
*8 net27
*9 net28
*10 net29
*11 net30
*12 net31
*13 net32
*14 minutes[0]
*15 minutes[1]
*16 minutes[2]
*17 minutes[3]
*18 minutes[4]
*19 minutes[5]
*20 net33
*21 net34
*22 net35
*23 net36
*24 net37
*25 net38
*26 reset
*27 seconds[0]
*28 seconds[1]
*29 seconds[2]
*30 seconds[3]
*31 seconds[4]
*32 seconds[5]
*33 net39
*34 net40
*35 net41
*36 net42
*37 net43
*38 net44
*41 _000_
*42 _001_
*43 _002_
*44 _003_
*45 _004_
*46 _005_
*47 _006_
*48 _007_
*49 _008_
*50 _009_
*51 _010_
*52 _011_
*53 _012_
*54 _013_
*55 _014_
*56 _015_
*57 _016_
*58 _017_
*59 _018_
*60 _019_
*61 _020_
*62 _021_
*63 _022_
*64 _023_
*65 _024_
*66 _025_
*67 _026_
*68 _027_
*69 _028_
*70 _029_
*71 _030_
*72 _031_
*73 _032_
*74 _033_
*75 _034_
*76 _035_
*77 _036_
*78 _037_
*79 _038_
*80 _039_
*81 _040_
*82 _041_
*83 _042_
*84 _043_
*85 _044_
*86 _045_
*87 _046_
*88 _047_
*89 _048_
*90 _049_
*91 _050_
*92 _051_
*93 _052_
*94 _053_
*95 _054_
*96 _055_
*97 _056_
*98 _057_
*99 _058_
*100 _059_
*101 _060_
*102 _061_
*103 _062_
*104 _063_
*105 _064_
*106 _065_
*107 _066_
*108 _067_
*109 _068_
*110 _069_
*111 _070_
*112 _071_
*113 _072_
*114 _073_
*115 _074_
*116 _075_
*117 _076_
*118 _077_
*119 _078_
*120 _079_
*121 _080_
*122 _081_
*123 _082_
*124 _083_
*125 _084_
*126 _085_
*127 _086_
*128 _087_
*129 _088_
*130 _089_
*131 _090_
*132 _091_
*133 _092_
*134 _093_
*135 _094_
*136 _095_
*137 _096_
*138 _097_
*139 _098_
*140 _099_
*141 _100_
*142 _101_
*143 _102_
*144 _103_
*145 _104_
*146 _105_
*147 _106_
*148 _107_
*149 _108_
*150 _109_
*151 _110_
*152 _111_
*153 _112_
*154 _113_
*155 _114_
*156 _115_
*157 _116_
*158 _117_
*159 _118_
*160 _119_
*161 _120_
*162 _121_
*163 _122_
*164 _123_
*165 _124_
*166 _125_
*167 _126_
*168 _127_
*169 _128_
*170 _129_
*171 _130_
*172 _131_
*173 _132_
*174 _133_
*175 _134_
*176 _135_
*177 _136_
*178 _137_
*179 _138_
*180 _139_
*181 _140_
*182 _141_
*183 _142_
*184 _143_
*185 _144_
*186 _145_
*187 _146_
*188 _147_
*189 _148_
*190 _149_
*191 _150_
*192 _151_
*193 _152_
*194 _153_
*195 _154_
*196 _155_
*197 _156_
*198 _157_
*199 _158_
*200 _159_
*201 _160_
*202 _161_
*203 _162_
*204 _163_
*205 _164_
*206 _165_
*207 _166_
*208 _167_
*209 _168_
*210 _169_
*211 _170_
*212 _171_
*213 _172_
*214 _173_
*215 _174_
*216 _175_
*217 _176_
*218 _177_
*219 _178_
*220 _179_
*221 _180_
*222 _181_
*223 _182_
*224 _183_
*225 _184_
*226 _185_
*227 _186_
*228 _187_
*229 _188_
*230 _189_
*231 _190_
*232 _191_
*233 _192_
*234 _193_
*235 _194_
*236 _195_
*237 _196_
*238 _197_
*239 _198_
*240 _199_
*241 _200_
*242 _201_
*243 _202_
*244 _203_
*245 _204_
*246 _205_
*247 _206_
*248 _207_
*249 _208_
*250 _209_
*251 _210_
*252 _211_
*253 _212_
*254 _213_
*255 _214_
*256 clknet_0_clk
*257 clknet_2_0__leaf_clk
*258 clknet_2_1__leaf_clk
*259 clknet_2_2__leaf_clk
*260 clknet_2_3__leaf_clk
*261 net1
*262 net10
*263 net11
*264 net12
*265 net13
*266 net14
*267 net15
*268 net16
*269 net17
*270 net18
*271 net19
*272 net2
*273 net20
*274 net21
*275 net22
*276 net23
*277 net24
*278 net25
*279 net26
*280 net3
*281 net4
*282 net5
*283 net6
*284 net7
*285 net8
*286 net9
*287 one_second_counter\[0\]
*288 one_second_counter\[10\]
*289 one_second_counter\[11\]
*290 one_second_counter\[12\]
*291 one_second_counter\[13\]
*292 one_second_counter\[14\]
*293 one_second_counter\[15\]
*294 one_second_counter\[16\]
*295 one_second_counter\[17\]
*296 one_second_counter\[18\]
*297 one_second_counter\[19\]
*298 one_second_counter\[1\]
*299 one_second_counter\[20\]
*300 one_second_counter\[21\]
*301 one_second_counter\[22\]
*302 one_second_counter\[23\]
*303 one_second_counter\[24\]
*304 one_second_counter\[25\]
*305 one_second_counter\[2\]
*306 one_second_counter\[3\]
*307 one_second_counter\[4\]
*308 one_second_counter\[5\]
*309 one_second_counter\[6\]
*310 one_second_counter\[7\]
*311 one_second_counter\[8\]
*312 one_second_counter\[9\]
*313 ANTENNA_1
*314 ANTENNA_10
*315 ANTENNA_11
*316 ANTENNA_12
*317 ANTENNA_13
*318 ANTENNA_14
*319 ANTENNA_15
*320 ANTENNA_16
*321 ANTENNA_17
*322 ANTENNA_18
*323 ANTENNA_19
*324 ANTENNA_2
*325 ANTENNA_3
*326 ANTENNA_4
*327 ANTENNA_5
*328 ANTENNA_6
*329 ANTENNA_7
*330 ANTENNA_8
*331 ANTENNA_9
*332 ANTENNA__228__A1
*333 ANTENNA__231__A2
*334 ANTENNA__233__A1
*335 ANTENNA__243__A1
*336 ANTENNA__249__A1
*337 ANTENNA__251__I
*338 ANTENNA__274__A1
*339 ANTENNA__281__A1
*340 ANTENNA__285__A1
*341 ANTENNA__286__I
*342 ANTENNA__288__A1
*343 ANTENNA__297__A1
*344 ANTENNA__301__A1
*345 ANTENNA__304__A1
*346 ANTENNA__307__A1
*347 ANTENNA__314__A1
*348 ANTENNA__319__A1
*349 ANTENNA__320__I
*350 ANTENNA__321__I
*351 ANTENNA__322__I
*352 ANTENNA__323__A1
*353 ANTENNA__323__A2
*354 ANTENNA__326__A1
*355 ANTENNA__327__A1
*356 ANTENNA__327__A3
*357 ANTENNA__329__A1
*358 ANTENNA__329__A3
*359 ANTENNA__330__A1
*360 ANTENNA__330__A2
*361 ANTENNA__330__B
*362 ANTENNA__335__S
*363 ANTENNA__336__A1
*364 ANTENNA__342__A1
*365 ANTENNA__343__I
*366 ANTENNA__344__A1
*367 ANTENNA__344__A2
*368 ANTENNA__344__A3
*369 ANTENNA__346__A1
*370 ANTENNA__347__A1
*371 ANTENNA__349__I
*372 ANTENNA__351__I
*373 ANTENNA__352__A1
*374 ANTENNA__353__I
*375 ANTENNA__356__A1
*376 ANTENNA__357__A1
*377 ANTENNA__360__A1
*378 ANTENNA__360__A2
*379 ANTENNA__361__A1
*380 ANTENNA__362__I
*381 ANTENNA__365__A2
*382 ANTENNA__367__A2
*383 ANTENNA__369__I
*384 ANTENNA__373__A1
*385 ANTENNA__373__A3
*386 ANTENNA__374__A1
*387 ANTENNA__376__I
*388 ANTENNA__377__C
*389 ANTENNA__378__I
*390 ANTENNA__379__B
*391 ANTENNA__381__A1
*392 ANTENNA__382__A1
*393 ANTENNA__384__A1
*394 ANTENNA__384__A3
*395 ANTENNA__388__C
*396 ANTENNA__389__I
*397 ANTENNA__393__A1
*398 ANTENNA__397__A1
*399 ANTENNA__399__I
*400 ANTENNA__401__B
*401 ANTENNA__401__C
*402 ANTENNA__407__C
*403 ANTENNA__409__B
*404 ANTENNA__410__A1
*405 ANTENNA__415__C
*406 ANTENNA__416__I
*407 ANTENNA__418__A1
*408 ANTENNA__420__C
*409 ANTENNA__425__A1
*410 ANTENNA__428__B
*411 ANTENNA__430__CLK
*412 ANTENNA__431__CLK
*413 ANTENNA__432__CLK
*414 ANTENNA__433__CLK
*415 ANTENNA__434__CLK
*416 ANTENNA__435__CLK
*417 ANTENNA__436__CLK
*418 ANTENNA__437__CLK
*419 ANTENNA__438__CLK
*420 ANTENNA__439__CLK
*421 ANTENNA__440__CLK
*422 ANTENNA__441__CLK
*423 ANTENNA__442__CLK
*424 ANTENNA__443__CLK
*425 ANTENNA__444__CLK
*426 ANTENNA__445__CLK
*427 ANTENNA__446__CLK
*428 ANTENNA__447__CLK
*429 ANTENNA__448__CLK
*430 ANTENNA__449__CLK
*431 ANTENNA__450__CLK
*432 ANTENNA__451__CLK
*433 ANTENNA__452__CLK
*434 ANTENNA__453__CLK
*435 ANTENNA__454__CLK
*436 ANTENNA__455__CLK
*437 ANTENNA__456__CLK
*438 ANTENNA__457__CLK
*439 ANTENNA__458__CLK
*440 ANTENNA__459__CLK
*441 ANTENNA__460__CLK
*442 ANTENNA__461__CLK
*443 ANTENNA__462__CLK
*444 ANTENNA__463__CLK
*445 ANTENNA__464__CLK
*446 ANTENNA__465__CLK
*447 ANTENNA__466__CLK
*448 ANTENNA__467__CLK
*449 ANTENNA__468__CLK
*450 ANTENNA__469__CLK
*451 ANTENNA__470__CLK
*452 ANTENNA__471__CLK
*453 ANTENNA__472__CLK
*454 ANTENNA__473__CLK
*455 ANTENNA_clkbuf_0_clk_I
*456 ANTENNA_clkbuf_2_0__f_clk_I
*457 ANTENNA_clkbuf_2_1__f_clk_I
*458 ANTENNA_clkbuf_2_2__f_clk_I
*459 ANTENNA_clkbuf_2_3__f_clk_I
*460 ANTENNA_fanout20_I
*461 ANTENNA_fanout21_I
*462 ANTENNA_fanout22_I
*463 ANTENNA_input1_I
*464 ANTENNA_output10_I
*465 ANTENNA_output11_I
*466 ANTENNA_output13_I
*467 ANTENNA_output14_I
*468 ANTENNA_output15_I
*469 ANTENNA_output16_I
*470 ANTENNA_output17_I
*471 ANTENNA_output18_I
*472 ANTENNA_output19_I
*473 ANTENNA_output2_I
*474 ANTENNA_output3_I
*475 ANTENNA_output4_I
*476 ANTENNA_output5_I
*477 ANTENNA_output6_I
*478 ANTENNA_output8_I
*479 ANTENNA_output9_I
*480 DigitalClock_27
*481 DigitalClock_28
*482 DigitalClock_29
*483 DigitalClock_30
*484 DigitalClock_31
*485 DigitalClock_32
*486 DigitalClock_33
*487 DigitalClock_34
*488 DigitalClock_35
*489 DigitalClock_36
*490 DigitalClock_37
*491 DigitalClock_38
*492 DigitalClock_39
*493 DigitalClock_40
*494 DigitalClock_41
*495 DigitalClock_42
*496 DigitalClock_43
*497 DigitalClock_44
*498 FILLER_0_0_1022
*499 FILLER_0_0_104
*500 FILLER_0_0_1056
*501 FILLER_0_0_1090
*502 FILLER_0_0_1124
*503 FILLER_0_0_1158
*504 FILLER_0_0_1192
*505 FILLER_0_0_1226
*506 FILLER_0_0_1260
*507 FILLER_0_0_1294
*508 FILLER_0_0_1328
*509 FILLER_0_0_1362
*510 FILLER_0_0_138
*511 FILLER_0_0_1396
*512 FILLER_0_0_1430
*513 FILLER_0_0_1464
*514 FILLER_0_0_1498
*515 FILLER_0_0_1532
*516 FILLER_0_0_1566
*517 FILLER_0_0_1600
*518 FILLER_0_0_1634
*519 FILLER_0_0_1668
*520 FILLER_0_0_1702
*521 FILLER_0_0_172
*522 FILLER_0_0_1736
*523 FILLER_0_0_1770
*524 FILLER_0_0_1804
*525 FILLER_0_0_1838
*526 FILLER_0_0_1872
*527 FILLER_0_0_1906
*528 FILLER_0_0_1940
*529 FILLER_0_0_1974
*530 FILLER_0_0_2
*531 FILLER_0_0_2008
*532 FILLER_0_0_2042
*533 FILLER_0_0_206
*534 FILLER_0_0_2076
*535 FILLER_0_0_2110
*536 FILLER_0_0_2144
*537 FILLER_0_0_2178
*538 FILLER_0_0_2212
*539 FILLER_0_0_2246
*540 FILLER_0_0_2280
*541 FILLER_0_0_2314
*542 FILLER_0_0_2348
*543 FILLER_0_0_2382
*544 FILLER_0_0_240
*545 FILLER_0_0_2416
*546 FILLER_0_0_2450
*547 FILLER_0_0_2484
*548 FILLER_0_0_2518
*549 FILLER_0_0_2552
*550 FILLER_0_0_2586
*551 FILLER_0_0_2620
*552 FILLER_0_0_2654
*553 FILLER_0_0_2688
*554 FILLER_0_0_2722
*555 FILLER_0_0_274
*556 FILLER_0_0_2756
*557 FILLER_0_0_2790
*558 FILLER_0_0_2824
*559 FILLER_0_0_2858
*560 FILLER_0_0_2892
*561 FILLER_0_0_2926
*562 FILLER_0_0_2960
*563 FILLER_0_0_2994
*564 FILLER_0_0_3028
*565 FILLER_0_0_3062
*566 FILLER_0_0_308
*567 FILLER_0_0_3096
*568 FILLER_0_0_3130
*569 FILLER_0_0_3164
*570 FILLER_0_0_3198
*571 FILLER_0_0_3232
*572 FILLER_0_0_3266
*573 FILLER_0_0_3300
*574 FILLER_0_0_3334
*575 FILLER_0_0_3368
*576 FILLER_0_0_3402
*577 FILLER_0_0_342
*578 FILLER_0_0_3436
*579 FILLER_0_0_3470
*580 FILLER_0_0_3504
*581 FILLER_0_0_3538
*582 FILLER_0_0_3572
*583 FILLER_0_0_36
*584 FILLER_0_0_3606
*585 FILLER_0_0_3640
*586 FILLER_0_0_3674
*587 FILLER_0_0_3708
*588 FILLER_0_0_3742
*589 FILLER_0_0_376
*590 FILLER_0_0_3776
*591 FILLER_0_0_3810
*592 FILLER_0_0_3844
*593 FILLER_0_0_3878
*594 FILLER_0_0_3912
*595 FILLER_0_0_3946
*596 FILLER_0_0_3980
*597 FILLER_0_0_4014
*598 FILLER_0_0_4048
*599 FILLER_0_0_4082
*600 FILLER_0_0_410
*601 FILLER_0_0_4116
*602 FILLER_0_0_4150
*603 FILLER_0_0_4184
*604 FILLER_0_0_4218
*605 FILLER_0_0_4252
*606 FILLER_0_0_4286
*607 FILLER_0_0_4320
*608 FILLER_0_0_4354
*609 FILLER_0_0_4388
*610 FILLER_0_0_4422
*611 FILLER_0_0_444
*612 FILLER_0_0_4456
*613 FILLER_0_0_4490
*614 FILLER_0_0_4524
*615 FILLER_0_0_4558
*616 FILLER_0_0_4592
*617 FILLER_0_0_4626
*618 FILLER_0_0_4660
*619 FILLER_0_0_4694
*620 FILLER_0_0_4728
*621 FILLER_0_0_4762
*622 FILLER_0_0_478
*623 FILLER_0_0_4796
*624 FILLER_0_0_4830
*625 FILLER_0_0_4864
*626 FILLER_0_0_4898
*627 FILLER_0_0_4932
*628 FILLER_0_0_4966
*629 FILLER_0_0_512
*630 FILLER_0_0_546
*631 FILLER_0_0_580
*632 FILLER_0_0_614
*633 FILLER_0_0_648
*634 FILLER_0_0_682
*635 FILLER_0_0_70
*636 FILLER_0_0_716
*637 FILLER_0_0_750
*638 FILLER_0_0_784
*639 FILLER_0_0_818
*640 FILLER_0_0_852
*641 FILLER_0_0_886
*642 FILLER_0_0_920
*643 FILLER_0_0_954
*644 FILLER_0_0_988
*645 FILLER_0_100_101
*646 FILLER_0_100_1011
*647 FILLER_0_100_1017
*648 FILLER_0_100_107
*649 FILLER_0_100_1081
*650 FILLER_0_100_1087
*651 FILLER_0_100_1151
*652 FILLER_0_100_1157
*653 FILLER_0_100_1221
*654 FILLER_0_100_1227
*655 FILLER_0_100_1291
*656 FILLER_0_100_1297
*657 FILLER_0_100_1361
*658 FILLER_0_100_1367
*659 FILLER_0_100_1431
*660 FILLER_0_100_1437
*661 FILLER_0_100_1501
*662 FILLER_0_100_1507
*663 FILLER_0_100_1571
*664 FILLER_0_100_1577
*665 FILLER_0_100_1641
*666 FILLER_0_100_1647
*667 FILLER_0_100_171
*668 FILLER_0_100_1711
*669 FILLER_0_100_1717
*670 FILLER_0_100_177
*671 FILLER_0_100_1781
*672 FILLER_0_100_1787
*673 FILLER_0_100_1851
*674 FILLER_0_100_1857
*675 FILLER_0_100_1921
*676 FILLER_0_100_1927
*677 FILLER_0_100_1991
*678 FILLER_0_100_1997
*679 FILLER_0_100_2
*680 FILLER_0_100_2061
*681 FILLER_0_100_2067
*682 FILLER_0_100_2131
*683 FILLER_0_100_2137
*684 FILLER_0_100_2201
*685 FILLER_0_100_2207
*686 FILLER_0_100_2271
*687 FILLER_0_100_2277
*688 FILLER_0_100_2341
*689 FILLER_0_100_2347
*690 FILLER_0_100_241
*691 FILLER_0_100_2411
*692 FILLER_0_100_2417
*693 FILLER_0_100_247
*694 FILLER_0_100_2481
*695 FILLER_0_100_2487
*696 FILLER_0_100_2551
*697 FILLER_0_100_2557
*698 FILLER_0_100_2621
*699 FILLER_0_100_2627
*700 FILLER_0_100_2691
*701 FILLER_0_100_2697
*702 FILLER_0_100_2761
*703 FILLER_0_100_2767
*704 FILLER_0_100_2831
*705 FILLER_0_100_2837
*706 FILLER_0_100_2901
*707 FILLER_0_100_2907
*708 FILLER_0_100_2971
*709 FILLER_0_100_2977
*710 FILLER_0_100_3041
*711 FILLER_0_100_3047
*712 FILLER_0_100_311
*713 FILLER_0_100_3111
*714 FILLER_0_100_3117
*715 FILLER_0_100_317
*716 FILLER_0_100_3181
*717 FILLER_0_100_3187
*718 FILLER_0_100_3251
*719 FILLER_0_100_3257
*720 FILLER_0_100_3321
*721 FILLER_0_100_3327
*722 FILLER_0_100_3391
*723 FILLER_0_100_3397
*724 FILLER_0_100_34
*725 FILLER_0_100_3461
*726 FILLER_0_100_3467
*727 FILLER_0_100_3531
*728 FILLER_0_100_3537
*729 FILLER_0_100_3601
*730 FILLER_0_100_3607
*731 FILLER_0_100_3671
*732 FILLER_0_100_3677
*733 FILLER_0_100_37
*734 FILLER_0_100_3741
*735 FILLER_0_100_3747
*736 FILLER_0_100_381
*737 FILLER_0_100_3811
*738 FILLER_0_100_3817
*739 FILLER_0_100_387
*740 FILLER_0_100_3881
*741 FILLER_0_100_3887
*742 FILLER_0_100_3951
*743 FILLER_0_100_3957
*744 FILLER_0_100_4021
*745 FILLER_0_100_4027
*746 FILLER_0_100_4091
*747 FILLER_0_100_4097
*748 FILLER_0_100_4161
*749 FILLER_0_100_4167
*750 FILLER_0_100_4231
*751 FILLER_0_100_4237
*752 FILLER_0_100_4301
*753 FILLER_0_100_4307
*754 FILLER_0_100_4371
*755 FILLER_0_100_4377
*756 FILLER_0_100_4441
*757 FILLER_0_100_4447
*758 FILLER_0_100_451
*759 FILLER_0_100_4511
*760 FILLER_0_100_4517
*761 FILLER_0_100_457
*762 FILLER_0_100_4581
*763 FILLER_0_100_4587
*764 FILLER_0_100_4651
*765 FILLER_0_100_4657
*766 FILLER_0_100_4721
*767 FILLER_0_100_4727
*768 FILLER_0_100_4791
*769 FILLER_0_100_4797
*770 FILLER_0_100_4861
*771 FILLER_0_100_4867
*772 FILLER_0_100_4931
*773 FILLER_0_100_4937
*774 FILLER_0_100_4969
*775 FILLER_0_100_4973
*776 FILLER_0_100_521
*777 FILLER_0_100_527
*778 FILLER_0_100_591
*779 FILLER_0_100_597
*780 FILLER_0_100_661
*781 FILLER_0_100_667
*782 FILLER_0_100_731
*783 FILLER_0_100_737
*784 FILLER_0_100_801
*785 FILLER_0_100_807
*786 FILLER_0_100_871
*787 FILLER_0_100_877
*788 FILLER_0_100_941
*789 FILLER_0_100_947
*790 FILLER_0_101_1046
*791 FILLER_0_101_1052
*792 FILLER_0_101_1116
*793 FILLER_0_101_1122
*794 FILLER_0_101_1186
*795 FILLER_0_101_1192
*796 FILLER_0_101_1256
*797 FILLER_0_101_1262
*798 FILLER_0_101_1326
*799 FILLER_0_101_1332
*800 FILLER_0_101_136
*801 FILLER_0_101_1396
*802 FILLER_0_101_1402
*803 FILLER_0_101_142
*804 FILLER_0_101_1466
*805 FILLER_0_101_1472
*806 FILLER_0_101_1536
*807 FILLER_0_101_1542
*808 FILLER_0_101_1606
*809 FILLER_0_101_1612
*810 FILLER_0_101_1676
*811 FILLER_0_101_1682
*812 FILLER_0_101_1746
*813 FILLER_0_101_1752
*814 FILLER_0_101_1816
*815 FILLER_0_101_1822
*816 FILLER_0_101_1886
*817 FILLER_0_101_1892
*818 FILLER_0_101_1956
*819 FILLER_0_101_1962
*820 FILLER_0_101_2
*821 FILLER_0_101_2026
*822 FILLER_0_101_2032
*823 FILLER_0_101_206
*824 FILLER_0_101_2096
*825 FILLER_0_101_2102
*826 FILLER_0_101_212
*827 FILLER_0_101_2166
*828 FILLER_0_101_2172
*829 FILLER_0_101_2236
*830 FILLER_0_101_2242
*831 FILLER_0_101_2306
*832 FILLER_0_101_2312
*833 FILLER_0_101_2376
*834 FILLER_0_101_2382
*835 FILLER_0_101_2446
*836 FILLER_0_101_2452
*837 FILLER_0_101_2516
*838 FILLER_0_101_2522
*839 FILLER_0_101_2586
*840 FILLER_0_101_2592
*841 FILLER_0_101_2656
*842 FILLER_0_101_2662
*843 FILLER_0_101_2726
*844 FILLER_0_101_2732
*845 FILLER_0_101_276
*846 FILLER_0_101_2796
*847 FILLER_0_101_2802
*848 FILLER_0_101_282
*849 FILLER_0_101_2866
*850 FILLER_0_101_2872
*851 FILLER_0_101_2936
*852 FILLER_0_101_2942
*853 FILLER_0_101_3006
*854 FILLER_0_101_3012
*855 FILLER_0_101_3076
*856 FILLER_0_101_3082
*857 FILLER_0_101_3146
*858 FILLER_0_101_3152
*859 FILLER_0_101_3216
*860 FILLER_0_101_3222
*861 FILLER_0_101_3286
*862 FILLER_0_101_3292
*863 FILLER_0_101_3356
*864 FILLER_0_101_3362
*865 FILLER_0_101_3426
*866 FILLER_0_101_3432
*867 FILLER_0_101_346
*868 FILLER_0_101_3496
*869 FILLER_0_101_3502
*870 FILLER_0_101_352
*871 FILLER_0_101_3566
*872 FILLER_0_101_3572
*873 FILLER_0_101_3636
*874 FILLER_0_101_3642
*875 FILLER_0_101_3706
*876 FILLER_0_101_3712
*877 FILLER_0_101_3776
*878 FILLER_0_101_3782
*879 FILLER_0_101_3846
*880 FILLER_0_101_3852
*881 FILLER_0_101_3916
*882 FILLER_0_101_3922
*883 FILLER_0_101_3986
*884 FILLER_0_101_3992
*885 FILLER_0_101_4056
*886 FILLER_0_101_4062
*887 FILLER_0_101_4126
*888 FILLER_0_101_4132
*889 FILLER_0_101_416
*890 FILLER_0_101_4196
*891 FILLER_0_101_4202
*892 FILLER_0_101_422
*893 FILLER_0_101_4266
*894 FILLER_0_101_4272
*895 FILLER_0_101_4336
*896 FILLER_0_101_4342
*897 FILLER_0_101_4406
*898 FILLER_0_101_4412
*899 FILLER_0_101_4476
*900 FILLER_0_101_4482
*901 FILLER_0_101_4546
*902 FILLER_0_101_4552
*903 FILLER_0_101_4616
*904 FILLER_0_101_4622
*905 FILLER_0_101_4686
*906 FILLER_0_101_4692
*907 FILLER_0_101_4756
*908 FILLER_0_101_4762
*909 FILLER_0_101_4826
*910 FILLER_0_101_4832
*911 FILLER_0_101_486
*912 FILLER_0_101_4896
*913 FILLER_0_101_4902
*914 FILLER_0_101_492
*915 FILLER_0_101_4966
*916 FILLER_0_101_4972
*917 FILLER_0_101_556
*918 FILLER_0_101_562
*919 FILLER_0_101_626
*920 FILLER_0_101_632
*921 FILLER_0_101_66
*922 FILLER_0_101_696
*923 FILLER_0_101_702
*924 FILLER_0_101_72
*925 FILLER_0_101_766
*926 FILLER_0_101_772
*927 FILLER_0_101_836
*928 FILLER_0_101_842
*929 FILLER_0_101_906
*930 FILLER_0_101_912
*931 FILLER_0_101_976
*932 FILLER_0_101_982
*933 FILLER_0_102_101
*934 FILLER_0_102_1011
*935 FILLER_0_102_1017
*936 FILLER_0_102_107
*937 FILLER_0_102_1081
*938 FILLER_0_102_1087
*939 FILLER_0_102_1151
*940 FILLER_0_102_1157
*941 FILLER_0_102_1221
*942 FILLER_0_102_1227
*943 FILLER_0_102_1291
*944 FILLER_0_102_1297
*945 FILLER_0_102_1361
*946 FILLER_0_102_1367
*947 FILLER_0_102_1431
*948 FILLER_0_102_1437
*949 FILLER_0_102_1501
*950 FILLER_0_102_1507
*951 FILLER_0_102_1571
*952 FILLER_0_102_1577
*953 FILLER_0_102_1641
*954 FILLER_0_102_1647
*955 FILLER_0_102_171
*956 FILLER_0_102_1711
*957 FILLER_0_102_1717
*958 FILLER_0_102_177
*959 FILLER_0_102_1781
*960 FILLER_0_102_1787
*961 FILLER_0_102_1851
*962 FILLER_0_102_1857
*963 FILLER_0_102_1921
*964 FILLER_0_102_1927
*965 FILLER_0_102_1991
*966 FILLER_0_102_1997
*967 FILLER_0_102_2
*968 FILLER_0_102_2061
*969 FILLER_0_102_2067
*970 FILLER_0_102_2131
*971 FILLER_0_102_2137
*972 FILLER_0_102_2201
*973 FILLER_0_102_2207
*974 FILLER_0_102_2271
*975 FILLER_0_102_2277
*976 FILLER_0_102_2341
*977 FILLER_0_102_2347
*978 FILLER_0_102_241
*979 FILLER_0_102_2411
*980 FILLER_0_102_2417
*981 FILLER_0_102_247
*982 FILLER_0_102_2481
*983 FILLER_0_102_2487
*984 FILLER_0_102_2551
*985 FILLER_0_102_2557
*986 FILLER_0_102_2621
*987 FILLER_0_102_2627
*988 FILLER_0_102_2691
*989 FILLER_0_102_2697
*990 FILLER_0_102_2761
*991 FILLER_0_102_2767
*992 FILLER_0_102_2831
*993 FILLER_0_102_2837
*994 FILLER_0_102_2901
*995 FILLER_0_102_2907
*996 FILLER_0_102_2971
*997 FILLER_0_102_2977
*998 FILLER_0_102_3041
*999 FILLER_0_102_3047
*1000 FILLER_0_102_311
*1001 FILLER_0_102_3111
*1002 FILLER_0_102_3117
*1003 FILLER_0_102_317
*1004 FILLER_0_102_3181
*1005 FILLER_0_102_3187
*1006 FILLER_0_102_3251
*1007 FILLER_0_102_3257
*1008 FILLER_0_102_3321
*1009 FILLER_0_102_3327
*1010 FILLER_0_102_3391
*1011 FILLER_0_102_3397
*1012 FILLER_0_102_34
*1013 FILLER_0_102_3461
*1014 FILLER_0_102_3467
*1015 FILLER_0_102_3531
*1016 FILLER_0_102_3537
*1017 FILLER_0_102_3601
*1018 FILLER_0_102_3607
*1019 FILLER_0_102_3671
*1020 FILLER_0_102_3677
*1021 FILLER_0_102_37
*1022 FILLER_0_102_3741
*1023 FILLER_0_102_3747
*1024 FILLER_0_102_381
*1025 FILLER_0_102_3811
*1026 FILLER_0_102_3817
*1027 FILLER_0_102_387
*1028 FILLER_0_102_3881
*1029 FILLER_0_102_3887
*1030 FILLER_0_102_3951
*1031 FILLER_0_102_3957
*1032 FILLER_0_102_4021
*1033 FILLER_0_102_4027
*1034 FILLER_0_102_4091
*1035 FILLER_0_102_4097
*1036 FILLER_0_102_4161
*1037 FILLER_0_102_4167
*1038 FILLER_0_102_4231
*1039 FILLER_0_102_4237
*1040 FILLER_0_102_4301
*1041 FILLER_0_102_4307
*1042 FILLER_0_102_4371
*1043 FILLER_0_102_4377
*1044 FILLER_0_102_4441
*1045 FILLER_0_102_4447
*1046 FILLER_0_102_451
*1047 FILLER_0_102_4511
*1048 FILLER_0_102_4517
*1049 FILLER_0_102_457
*1050 FILLER_0_102_4581
*1051 FILLER_0_102_4587
*1052 FILLER_0_102_4651
*1053 FILLER_0_102_4657
*1054 FILLER_0_102_4721
*1055 FILLER_0_102_4727
*1056 FILLER_0_102_4791
*1057 FILLER_0_102_4797
*1058 FILLER_0_102_4861
*1059 FILLER_0_102_4867
*1060 FILLER_0_102_4931
*1061 FILLER_0_102_4937
*1062 FILLER_0_102_4969
*1063 FILLER_0_102_4973
*1064 FILLER_0_102_521
*1065 FILLER_0_102_527
*1066 FILLER_0_102_591
*1067 FILLER_0_102_597
*1068 FILLER_0_102_661
*1069 FILLER_0_102_667
*1070 FILLER_0_102_731
*1071 FILLER_0_102_737
*1072 FILLER_0_102_801
*1073 FILLER_0_102_807
*1074 FILLER_0_102_871
*1075 FILLER_0_102_877
*1076 FILLER_0_102_941
*1077 FILLER_0_102_947
*1078 FILLER_0_103_1046
*1079 FILLER_0_103_1052
*1080 FILLER_0_103_1116
*1081 FILLER_0_103_1122
*1082 FILLER_0_103_1186
*1083 FILLER_0_103_1192
*1084 FILLER_0_103_1256
*1085 FILLER_0_103_1262
*1086 FILLER_0_103_1326
*1087 FILLER_0_103_1332
*1088 FILLER_0_103_136
*1089 FILLER_0_103_1396
*1090 FILLER_0_103_1402
*1091 FILLER_0_103_142
*1092 FILLER_0_103_1466
*1093 FILLER_0_103_1472
*1094 FILLER_0_103_1536
*1095 FILLER_0_103_1542
*1096 FILLER_0_103_1606
*1097 FILLER_0_103_1612
*1098 FILLER_0_103_1676
*1099 FILLER_0_103_1682
*1100 FILLER_0_103_1746
*1101 FILLER_0_103_1752
*1102 FILLER_0_103_1816
*1103 FILLER_0_103_1822
*1104 FILLER_0_103_1886
*1105 FILLER_0_103_1892
*1106 FILLER_0_103_1956
*1107 FILLER_0_103_1962
*1108 FILLER_0_103_2
*1109 FILLER_0_103_2026
*1110 FILLER_0_103_2032
*1111 FILLER_0_103_206
*1112 FILLER_0_103_2096
*1113 FILLER_0_103_2102
*1114 FILLER_0_103_212
*1115 FILLER_0_103_2166
*1116 FILLER_0_103_2172
*1117 FILLER_0_103_2236
*1118 FILLER_0_103_2242
*1119 FILLER_0_103_2306
*1120 FILLER_0_103_2312
*1121 FILLER_0_103_2376
*1122 FILLER_0_103_2382
*1123 FILLER_0_103_2446
*1124 FILLER_0_103_2452
*1125 FILLER_0_103_2516
*1126 FILLER_0_103_2522
*1127 FILLER_0_103_2586
*1128 FILLER_0_103_2592
*1129 FILLER_0_103_2656
*1130 FILLER_0_103_2662
*1131 FILLER_0_103_2726
*1132 FILLER_0_103_2732
*1133 FILLER_0_103_276
*1134 FILLER_0_103_2796
*1135 FILLER_0_103_2802
*1136 FILLER_0_103_282
*1137 FILLER_0_103_2866
*1138 FILLER_0_103_2872
*1139 FILLER_0_103_2936
*1140 FILLER_0_103_2942
*1141 FILLER_0_103_3006
*1142 FILLER_0_103_3012
*1143 FILLER_0_103_3076
*1144 FILLER_0_103_3082
*1145 FILLER_0_103_3146
*1146 FILLER_0_103_3152
*1147 FILLER_0_103_3216
*1148 FILLER_0_103_3222
*1149 FILLER_0_103_3286
*1150 FILLER_0_103_3292
*1151 FILLER_0_103_3356
*1152 FILLER_0_103_3362
*1153 FILLER_0_103_3426
*1154 FILLER_0_103_3432
*1155 FILLER_0_103_346
*1156 FILLER_0_103_3496
*1157 FILLER_0_103_3502
*1158 FILLER_0_103_352
*1159 FILLER_0_103_3566
*1160 FILLER_0_103_3572
*1161 FILLER_0_103_3636
*1162 FILLER_0_103_3642
*1163 FILLER_0_103_3706
*1164 FILLER_0_103_3712
*1165 FILLER_0_103_3776
*1166 FILLER_0_103_3782
*1167 FILLER_0_103_3846
*1168 FILLER_0_103_3852
*1169 FILLER_0_103_3916
*1170 FILLER_0_103_3922
*1171 FILLER_0_103_3986
*1172 FILLER_0_103_3992
*1173 FILLER_0_103_4056
*1174 FILLER_0_103_4062
*1175 FILLER_0_103_4126
*1176 FILLER_0_103_4132
*1177 FILLER_0_103_416
*1178 FILLER_0_103_4196
*1179 FILLER_0_103_4202
*1180 FILLER_0_103_422
*1181 FILLER_0_103_4266
*1182 FILLER_0_103_4272
*1183 FILLER_0_103_4336
*1184 FILLER_0_103_4342
*1185 FILLER_0_103_4406
*1186 FILLER_0_103_4412
*1187 FILLER_0_103_4476
*1188 FILLER_0_103_4482
*1189 FILLER_0_103_4546
*1190 FILLER_0_103_4552
*1191 FILLER_0_103_4616
*1192 FILLER_0_103_4622
*1193 FILLER_0_103_4686
*1194 FILLER_0_103_4692
*1195 FILLER_0_103_4756
*1196 FILLER_0_103_4762
*1197 FILLER_0_103_4826
*1198 FILLER_0_103_4832
*1199 FILLER_0_103_486
*1200 FILLER_0_103_4896
*1201 FILLER_0_103_4902
*1202 FILLER_0_103_492
*1203 FILLER_0_103_4966
*1204 FILLER_0_103_4972
*1205 FILLER_0_103_556
*1206 FILLER_0_103_562
*1207 FILLER_0_103_626
*1208 FILLER_0_103_632
*1209 FILLER_0_103_66
*1210 FILLER_0_103_696
*1211 FILLER_0_103_702
*1212 FILLER_0_103_72
*1213 FILLER_0_103_766
*1214 FILLER_0_103_772
*1215 FILLER_0_103_836
*1216 FILLER_0_103_842
*1217 FILLER_0_103_906
*1218 FILLER_0_103_912
*1219 FILLER_0_103_976
*1220 FILLER_0_103_982
*1221 FILLER_0_104_101
*1222 FILLER_0_104_1011
*1223 FILLER_0_104_1017
*1224 FILLER_0_104_107
*1225 FILLER_0_104_1081
*1226 FILLER_0_104_1087
*1227 FILLER_0_104_1151
*1228 FILLER_0_104_1157
*1229 FILLER_0_104_1221
*1230 FILLER_0_104_1227
*1231 FILLER_0_104_1291
*1232 FILLER_0_104_1297
*1233 FILLER_0_104_1361
*1234 FILLER_0_104_1367
*1235 FILLER_0_104_1431
*1236 FILLER_0_104_1437
*1237 FILLER_0_104_1501
*1238 FILLER_0_104_1507
*1239 FILLER_0_104_1571
*1240 FILLER_0_104_1577
*1241 FILLER_0_104_1641
*1242 FILLER_0_104_1647
*1243 FILLER_0_104_171
*1244 FILLER_0_104_1711
*1245 FILLER_0_104_1717
*1246 FILLER_0_104_177
*1247 FILLER_0_104_1781
*1248 FILLER_0_104_1787
*1249 FILLER_0_104_1851
*1250 FILLER_0_104_1857
*1251 FILLER_0_104_1921
*1252 FILLER_0_104_1927
*1253 FILLER_0_104_1991
*1254 FILLER_0_104_1997
*1255 FILLER_0_104_2
*1256 FILLER_0_104_2061
*1257 FILLER_0_104_2067
*1258 FILLER_0_104_2131
*1259 FILLER_0_104_2137
*1260 FILLER_0_104_2201
*1261 FILLER_0_104_2207
*1262 FILLER_0_104_2271
*1263 FILLER_0_104_2277
*1264 FILLER_0_104_2341
*1265 FILLER_0_104_2347
*1266 FILLER_0_104_241
*1267 FILLER_0_104_2411
*1268 FILLER_0_104_2417
*1269 FILLER_0_104_247
*1270 FILLER_0_104_2481
*1271 FILLER_0_104_2487
*1272 FILLER_0_104_2551
*1273 FILLER_0_104_2557
*1274 FILLER_0_104_2621
*1275 FILLER_0_104_2627
*1276 FILLER_0_104_2691
*1277 FILLER_0_104_2697
*1278 FILLER_0_104_2761
*1279 FILLER_0_104_2767
*1280 FILLER_0_104_2831
*1281 FILLER_0_104_2837
*1282 FILLER_0_104_2901
*1283 FILLER_0_104_2907
*1284 FILLER_0_104_2971
*1285 FILLER_0_104_2977
*1286 FILLER_0_104_3041
*1287 FILLER_0_104_3047
*1288 FILLER_0_104_311
*1289 FILLER_0_104_3111
*1290 FILLER_0_104_3117
*1291 FILLER_0_104_317
*1292 FILLER_0_104_3181
*1293 FILLER_0_104_3187
*1294 FILLER_0_104_3251
*1295 FILLER_0_104_3257
*1296 FILLER_0_104_3321
*1297 FILLER_0_104_3327
*1298 FILLER_0_104_3391
*1299 FILLER_0_104_3397
*1300 FILLER_0_104_34
*1301 FILLER_0_104_3461
*1302 FILLER_0_104_3467
*1303 FILLER_0_104_3531
*1304 FILLER_0_104_3537
*1305 FILLER_0_104_3601
*1306 FILLER_0_104_3607
*1307 FILLER_0_104_3671
*1308 FILLER_0_104_3677
*1309 FILLER_0_104_37
*1310 FILLER_0_104_3741
*1311 FILLER_0_104_3747
*1312 FILLER_0_104_381
*1313 FILLER_0_104_3811
*1314 FILLER_0_104_3817
*1315 FILLER_0_104_387
*1316 FILLER_0_104_3881
*1317 FILLER_0_104_3887
*1318 FILLER_0_104_3951
*1319 FILLER_0_104_3957
*1320 FILLER_0_104_4021
*1321 FILLER_0_104_4027
*1322 FILLER_0_104_4091
*1323 FILLER_0_104_4097
*1324 FILLER_0_104_4161
*1325 FILLER_0_104_4167
*1326 FILLER_0_104_4231
*1327 FILLER_0_104_4237
*1328 FILLER_0_104_4301
*1329 FILLER_0_104_4307
*1330 FILLER_0_104_4371
*1331 FILLER_0_104_4377
*1332 FILLER_0_104_4441
*1333 FILLER_0_104_4447
*1334 FILLER_0_104_451
*1335 FILLER_0_104_4511
*1336 FILLER_0_104_4517
*1337 FILLER_0_104_457
*1338 FILLER_0_104_4581
*1339 FILLER_0_104_4587
*1340 FILLER_0_104_4651
*1341 FILLER_0_104_4657
*1342 FILLER_0_104_4721
*1343 FILLER_0_104_4727
*1344 FILLER_0_104_4791
*1345 FILLER_0_104_4797
*1346 FILLER_0_104_4861
*1347 FILLER_0_104_4867
*1348 FILLER_0_104_4931
*1349 FILLER_0_104_4937
*1350 FILLER_0_104_4945
*1351 FILLER_0_104_521
*1352 FILLER_0_104_527
*1353 FILLER_0_104_591
*1354 FILLER_0_104_597
*1355 FILLER_0_104_661
*1356 FILLER_0_104_667
*1357 FILLER_0_104_731
*1358 FILLER_0_104_737
*1359 FILLER_0_104_801
*1360 FILLER_0_104_807
*1361 FILLER_0_104_871
*1362 FILLER_0_104_877
*1363 FILLER_0_104_941
*1364 FILLER_0_104_947
*1365 FILLER_0_105_1046
*1366 FILLER_0_105_1052
*1367 FILLER_0_105_1116
*1368 FILLER_0_105_1122
*1369 FILLER_0_105_1186
*1370 FILLER_0_105_1192
*1371 FILLER_0_105_1256
*1372 FILLER_0_105_1262
*1373 FILLER_0_105_1326
*1374 FILLER_0_105_1332
*1375 FILLER_0_105_136
*1376 FILLER_0_105_1396
*1377 FILLER_0_105_1402
*1378 FILLER_0_105_142
*1379 FILLER_0_105_1466
*1380 FILLER_0_105_1472
*1381 FILLER_0_105_1536
*1382 FILLER_0_105_1542
*1383 FILLER_0_105_1606
*1384 FILLER_0_105_1612
*1385 FILLER_0_105_1676
*1386 FILLER_0_105_1682
*1387 FILLER_0_105_1746
*1388 FILLER_0_105_1752
*1389 FILLER_0_105_1816
*1390 FILLER_0_105_1822
*1391 FILLER_0_105_1886
*1392 FILLER_0_105_1892
*1393 FILLER_0_105_1956
*1394 FILLER_0_105_1962
*1395 FILLER_0_105_2
*1396 FILLER_0_105_2026
*1397 FILLER_0_105_2032
*1398 FILLER_0_105_206
*1399 FILLER_0_105_2096
*1400 FILLER_0_105_2102
*1401 FILLER_0_105_212
*1402 FILLER_0_105_2166
*1403 FILLER_0_105_2172
*1404 FILLER_0_105_2236
*1405 FILLER_0_105_2242
*1406 FILLER_0_105_2306
*1407 FILLER_0_105_2312
*1408 FILLER_0_105_2376
*1409 FILLER_0_105_2382
*1410 FILLER_0_105_2446
*1411 FILLER_0_105_2452
*1412 FILLER_0_105_2516
*1413 FILLER_0_105_2522
*1414 FILLER_0_105_2586
*1415 FILLER_0_105_2592
*1416 FILLER_0_105_2656
*1417 FILLER_0_105_2662
*1418 FILLER_0_105_2726
*1419 FILLER_0_105_2732
*1420 FILLER_0_105_276
*1421 FILLER_0_105_2796
*1422 FILLER_0_105_2802
*1423 FILLER_0_105_282
*1424 FILLER_0_105_2866
*1425 FILLER_0_105_2872
*1426 FILLER_0_105_2936
*1427 FILLER_0_105_2942
*1428 FILLER_0_105_3006
*1429 FILLER_0_105_3012
*1430 FILLER_0_105_3076
*1431 FILLER_0_105_3082
*1432 FILLER_0_105_3146
*1433 FILLER_0_105_3152
*1434 FILLER_0_105_3216
*1435 FILLER_0_105_3222
*1436 FILLER_0_105_3286
*1437 FILLER_0_105_3292
*1438 FILLER_0_105_3356
*1439 FILLER_0_105_3362
*1440 FILLER_0_105_3426
*1441 FILLER_0_105_3432
*1442 FILLER_0_105_346
*1443 FILLER_0_105_3496
*1444 FILLER_0_105_3502
*1445 FILLER_0_105_352