*SPEF "ieee 1481-1999"
*DESIGN "DigitalClock"
*DATE "11:11:11 Fri 11 11, 1111"
*VENDOR "OpenRCX"
*PROGRAM "Parallel Extraction"
*VERSION "1.0"
*DESIGN_FLOW "NAME_SCOPE LOCAL" "PIN_CAP NONE"
*DIVIDER /
*DELIMITER :
*BUS_DELIMITER []
*T_UNIT 1 NS
*C_UNIT 1 PF
*R_UNIT 1 OHM
*L_UNIT 1 HENRY

*NAME_MAP
*1 clk
*2 hours[0]
*3 hours[1]
*4 hours[2]
*5 hours[3]
*6 hours[4]
*7 hours[5]
*8 net27
*9 net28
*10 net29
*11 net30
*12 net31
*13 net32
*14 minutes[0]
*15 minutes[1]
*16 minutes[2]
*17 minutes[3]
*18 minutes[4]
*19 minutes[5]
*20 net33
*21 net34
*22 net35
*23 net36
*24 net37
*25 net38
*26 reset
*27 seconds[0]
*28 seconds[1]
*29 seconds[2]
*30 seconds[3]
*31 seconds[4]
*32 seconds[5]
*33 net39
*34 net40
*35 net41
*36 net42
*37 net43
*38 net44
*41 _000_
*42 _001_
*43 _002_
*44 _003_
*45 _004_
*46 _005_
*47 _006_
*48 _007_
*49 _008_
*50 _009_
*51 _010_
*52 _011_
*53 _012_
*54 _013_
*55 _014_
*56 _015_
*57 _016_
*58 _017_
*59 _018_
*60 _019_
*61 _020_
*62 _021_
*63 _022_
*64 _023_
*65 _024_
*66 _025_
*67 _026_
*68 _027_
*69 _028_
*70 _029_
*71 _030_
*72 _031_
*73 _032_
*74 _033_
*75 _034_
*76 _035_
*77 _036_
*78 _037_
*79 _038_
*80 _039_
*81 _040_
*82 _041_
*83 _042_
*84 _043_
*85 _044_
*86 _045_
*87 _046_
*88 _047_
*89 _048_
*90 _049_
*91 _050_
*92 _051_
*93 _052_
*94 _053_
*95 _054_
*96 _055_
*97 _056_
*98 _057_
*99 _058_
*100 _059_
*101 _060_
*102 _061_
*103 _062_
*104 _063_
*105 _064_
*106 _065_
*107 _066_
*108 _067_
*109 _068_
*110 _069_
*111 _070_
*112 _071_
*113 _072_
*114 _073_
*115 _074_
*116 _075_
*117 _076_
*118 _077_
*119 _078_
*120 _079_
*121 _080_
*122 _081_
*123 _082_
*124 _083_
*125 _084_
*126 _085_
*127 _086_
*128 _087_
*129 _088_
*130 _089_
*131 _090_
*132 _091_
*133 _092_
*134 _093_
*135 _094_
*136 _095_
*137 _096_
*138 _097_
*139 _098_
*140 _099_
*141 _100_
*142 _101_
*143 _102_
*144 _103_
*145 _104_
*146 _105_
*147 _106_
*148 _107_
*149 _108_
*150 _109_
*151 _110_
*152 _111_
*153 _112_
*154 _113_
*155 _114_
*156 _115_
*157 _116_
*158 _117_
*159 _118_
*160 _119_
*161 _120_
*162 _121_
*163 _122_
*164 _123_
*165 _124_
*166 _125_
*167 _126_
*168 _127_
*169 _128_
*170 _129_
*171 _130_
*172 _131_
*173 _132_
*174 _133_
*175 _134_
*176 _135_
*177 _136_
*178 _137_
*179 _138_
*180 _139_
*181 _140_
*182 _141_
*183 _142_
*184 _143_
*185 _144_
*186 _145_
*187 _146_
*188 _147_
*189 _148_
*190 _149_
*191 _150_
*192 _151_
*193 _152_
*194 _153_
*195 _154_
*196 _155_
*197 _156_
*198 _157_
*199 _158_
*200 _159_
*201 _160_
*202 _161_
*203 _162_
*204 _163_
*205 _164_
*206 _165_
*207 _166_
*208 _167_
*209 _168_
*210 _169_
*211 _170_
*212 _171_
*213 _172_
*214 _173_
*215 _174_
*216 _175_
*217 _176_
*218 _177_
*219 _178_
*220 _179_
*221 _180_
*222 _181_
*223 _182_
*224 _183_
*225 _184_
*226 _185_
*227 _186_
*228 _187_
*229 _188_
*230 _189_
*231 _190_
*232 _191_
*233 _192_
*234 _193_
*235 _194_
*236 _195_
*237 _196_
*238 _197_
*239 _198_
*240 _199_
*241 _200_
*242 _201_
*243 _202_
*244 _203_
*245 _204_
*246 _205_
*247 _206_
*248 _207_
*249 _208_
*250 _209_
*251 _210_
*252 _211_
*253 _212_
*254 _213_
*255 _214_
*256 clknet_0_clk
*257 clknet_2_0__leaf_clk
*258 clknet_2_1__leaf_clk
*259 clknet_2_2__leaf_clk
*260 clknet_2_3__leaf_clk
*261 net1
*262 net10
*263 net11
*264 net12
*265 net13
*266 net14
*267 net15
*268 net16
*269 net17
*270 net18
*271 net19
*272 net2
*273 net20
*274 net21
*275 net22
*276 net23
*277 net24
*278 net25
*279 net26
*280 net3
*281 net4
*282 net5
*283 net6
*284 net7
*285 net8
*286 net9
*287 one_second_counter\[0\]
*288 one_second_counter\[10\]
*289 one_second_counter\[11\]
*290 one_second_counter\[12\]
*291 one_second_counter\[13\]
*292 one_second_counter\[14\]
*293 one_second_counter\[15\]
*294 one_second_counter\[16\]
*295 one_second_counter\[17\]
*296 one_second_counter\[18\]
*297 one_second_counter\[19\]
*298 one_second_counter\[1\]
*299 one_second_counter\[20\]
*300 one_second_counter\[21\]
*301 one_second_counter\[22\]
*302 one_second_counter\[23\]
*303 one_second_counter\[24\]
*304 one_second_counter\[25\]
*305 one_second_counter\[2\]
*306 one_second_counter\[3\]
*307 one_second_counter\[4\]
*308 one_second_counter\[5\]
*309 one_second_counter\[6\]
*310 one_second_counter\[7\]
*311 one_second_counter\[8\]
*312 one_second_counter\[9\]
*313 ANTENNA__228__A1
*314 ANTENNA__254__A1
*315 ANTENNA__257__A1
*316 ANTENNA__263__C
*317 ANTENNA__266__A1
*318 ANTENNA__276__A1
*319 ANTENNA__293__C
*320 ANTENNA__312__C
*321 ANTENNA__317__C
*322 ANTENNA__320__I
*323 ANTENNA__335__S
*324 ANTENNA__336__A1
*325 ANTENNA__349__I
*326 ANTENNA__352__A1
*327 ANTENNA__357__A1
*328 ANTENNA__360__A2
*329 ANTENNA__361__A1
*330 ANTENNA__365__A2
*331 ANTENNA__367__A2
*332 ANTENNA__378__I
*333 ANTENNA__382__A1
*334 ANTENNA__393__A1
*335 ANTENNA__401__B
*336 ANTENNA__410__A1
*337 ANTENNA__415__C
*338 ANTENNA__420__C
*339 ANTENNA__425__A1
*340 ANTENNA__430__CLK
*341 ANTENNA__431__CLK
*342 ANTENNA__432__CLK
*343 ANTENNA__433__CLK
*344 ANTENNA__434__CLK
*345 ANTENNA__435__CLK
*346 ANTENNA__436__CLK
*347 ANTENNA__437__CLK
*348 ANTENNA__438__CLK
*349 ANTENNA__439__CLK
*350 ANTENNA__440__CLK
*351 ANTENNA__441__CLK
*352 ANTENNA__442__CLK
*353 ANTENNA__443__CLK
*354 ANTENNA__444__CLK
*355 ANTENNA__445__CLK
*356 ANTENNA__446__CLK
*357 ANTENNA__447__CLK
*358 ANTENNA__448__CLK
*359 ANTENNA__449__CLK
*360 ANTENNA__450__CLK
*361 ANTENNA__451__CLK
*362 ANTENNA__452__CLK
*363 ANTENNA__453__CLK
*364 ANTENNA__454__CLK
*365 ANTENNA__455__CLK
*366 ANTENNA__456__CLK
*367 ANTENNA__457__CLK
*368 ANTENNA__458__CLK
*369 ANTENNA__459__CLK
*370 ANTENNA__460__CLK
*371 ANTENNA__461__CLK
*372 ANTENNA__462__CLK
*373 ANTENNA__463__CLK
*374 ANTENNA__464__CLK
*375 ANTENNA__465__CLK
*376 ANTENNA__466__CLK
*377 ANTENNA__467__CLK
*378 ANTENNA__468__CLK
*379 ANTENNA__469__CLK
*380 ANTENNA__470__CLK
*381 ANTENNA__471__CLK
*382 ANTENNA__472__CLK
*383 ANTENNA__473__CLK
*384 ANTENNA_clkbuf_0_clk_I
*385 ANTENNA_clkbuf_2_0__f_clk_I
*386 ANTENNA_clkbuf_2_1__f_clk_I
*387 ANTENNA_clkbuf_2_2__f_clk_I
*388 ANTENNA_clkbuf_2_3__f_clk_I
*389 ANTENNA_input1_I
*390 DigitalClock_27
*391 DigitalClock_28
*392 DigitalClock_29
*393 DigitalClock_30
*394 DigitalClock_31
*395 DigitalClock_32
*396 DigitalClock_33
*397 DigitalClock_34
*398 DigitalClock_35
*399 DigitalClock_36
*400 DigitalClock_37
*401 DigitalClock_38
*402 DigitalClock_39
*403 DigitalClock_40
*404 DigitalClock_41
*405 DigitalClock_42
*406 DigitalClock_43
*407 DigitalClock_44
*408 FILLER_0_0_104
*409 FILLER_0_0_108
*410 FILLER_0_0_138
*411 FILLER_0_0_146
*412 FILLER_0_0_2
*413 FILLER_0_0_36
*414 FILLER_0_0_70
*415 FILLER_0_10_104
*416 FILLER_0_10_107
*417 FILLER_0_10_111
*418 FILLER_0_10_31
*419 FILLER_0_10_37
*420 FILLER_0_10_69
*421 FILLER_0_10_80
*422 FILLER_0_11_103
*423 FILLER_0_11_120
*424 FILLER_0_11_18
*425 FILLER_0_11_2
*426 FILLER_0_11_26
*427 FILLER_0_11_44
*428 FILLER_0_11_60
*429 FILLER_0_11_83
*430 FILLER_0_11_99
*431 FILLER_0_12_102
*432 FILLER_0_12_104
*433 FILLER_0_12_107
*434 FILLER_0_12_113
*435 FILLER_0_12_117
*436 FILLER_0_12_18
*437 FILLER_0_12_2
*438 FILLER_0_12_33
*439 FILLER_0_12_45
*440 FILLER_0_12_98
*441 FILLER_0_13_119
*442 FILLER_0_13_125
*443 FILLER_0_13_142
*444 FILLER_0_13_146
*445 FILLER_0_13_33
*446 FILLER_0_13_37
*447 FILLER_0_13_78
*448 FILLER_0_13_86
*449 FILLER_0_14_103
*450 FILLER_0_14_113
*451 FILLER_0_14_18
*452 FILLER_0_14_2
*453 FILLER_0_14_26
*454 FILLER_0_14_34
*455 FILLER_0_14_37
*456 FILLER_0_14_71
*457 FILLER_0_14_75
*458 FILLER_0_14_91
*459 FILLER_0_14_99
*460 FILLER_0_15_135
*461 FILLER_0_15_139
*462 FILLER_0_15_148
*463 FILLER_0_15_2
*464 FILLER_0_15_34
*465 FILLER_0_15_42
*466 FILLER_0_15_44
*467 FILLER_0_15_57
*468 FILLER_0_15_65
*469 FILLER_0_15_69
*470 FILLER_0_15_72
*471 FILLER_0_15_80
*472 FILLER_0_15_84
*473 FILLER_0_16_103
*474 FILLER_0_16_112
*475 FILLER_0_16_116
*476 FILLER_0_16_123
*477 FILLER_0_16_125
*478 FILLER_0_16_2
*479 FILLER_0_16_20
*480 FILLER_0_16_24
*481 FILLER_0_16_31
*482 FILLER_0_16_87
*483 FILLER_0_16_91
*484 FILLER_0_16_99
*485 FILLER_0_17_10
*486 FILLER_0_17_100
*487 FILLER_0_17_102
*488 FILLER_0_17_107
*489 FILLER_0_17_123
*490 FILLER_0_17_137
*491 FILLER_0_17_139
*492 FILLER_0_17_142
*493 FILLER_0_17_146
*494 FILLER_0_17_2
*495 FILLER_0_17_30
*496 FILLER_0_17_32
*497 FILLER_0_17_35
*498 FILLER_0_17_46
*499 FILLER_0_17_62
*500 FILLER_0_17_72
*501 FILLER_0_17_88
*502 FILLER_0_17_96
*503 FILLER_0_18_100
*504 FILLER_0_18_104
*505 FILLER_0_18_107
*506 FILLER_0_18_115
*507 FILLER_0_18_117
*508 FILLER_0_18_149
*509 FILLER_0_18_151
*510 FILLER_0_18_33
*511 FILLER_0_18_37
*512 FILLER_0_18_41
*513 FILLER_0_18_57
*514 FILLER_0_18_88
*515 FILLER_0_18_92
*516 FILLER_0_19_115
*517 FILLER_0_19_119
*518 FILLER_0_19_135
*519 FILLER_0_19_139
*520 FILLER_0_19_142
*521 FILLER_0_19_146
*522 FILLER_0_19_2
*523 FILLER_0_19_4
*524 FILLER_0_19_46
*525 FILLER_0_19_68
*526 FILLER_0_19_72
*527 FILLER_0_19_76
*528 FILLER_0_19_84
*529 FILLER_0_1_104
*530 FILLER_0_1_112
*531 FILLER_0_1_146
*532 FILLER_0_1_2
*533 FILLER_0_1_66
*534 FILLER_0_1_72
*535 FILLER_0_20_102
*536 FILLER_0_20_104
*537 FILLER_0_20_107
*538 FILLER_0_20_123
*539 FILLER_0_20_125
*540 FILLER_0_20_18
*541 FILLER_0_20_2
*542 FILLER_0_20_27
*543 FILLER_0_20_37
*544 FILLER_0_20_86
*545 FILLER_0_21_107
*546 FILLER_0_21_111
*547 FILLER_0_21_127
*548 FILLER_0_21_135
*549 FILLER_0_21_139
*550 FILLER_0_21_150
*551 FILLER_0_21_2
*552 FILLER_0_21_34
*553 FILLER_0_21_38
*554 FILLER_0_21_64
*555 FILLER_0_21_68
*556 FILLER_0_22_104
*557 FILLER_0_22_115
*558 FILLER_0_22_119
*559 FILLER_0_22_2
*560 FILLER_0_22_34
*561 FILLER_0_22_37
*562 FILLER_0_22_41
*563 FILLER_0_22_80
*564 FILLER_0_22_96
*565 FILLER_0_23_10
*566 FILLER_0_23_111
*567 FILLER_0_23_115
*568 FILLER_0_23_136
*569 FILLER_0_23_2
*570 FILLER_0_23_20
*571 FILLER_0_23_24
*572 FILLER_0_23_40
*573 FILLER_0_23_48
*574 FILLER_0_23_50
*575 FILLER_0_23_55
*576 FILLER_0_23_62
*577 FILLER_0_23_72
*578 FILLER_0_23_88
*579 FILLER_0_23_90
*580 FILLER_0_24_100
*581 FILLER_0_24_104
*582 FILLER_0_24_107
*583 FILLER_0_24_117
*584 FILLER_0_24_31
*585 FILLER_0_24_37
*586 FILLER_0_24_45
*587 FILLER_0_24_47
*588 FILLER_0_24_60
*589 FILLER_0_24_92
*590 FILLER_0_25_10
*591 FILLER_0_25_103
*592 FILLER_0_25_107
*593 FILLER_0_25_115
*594 FILLER_0_25_122
*595 FILLER_0_25_136
*596 FILLER_0_25_2
*597 FILLER_0_25_27
*598 FILLER_0_25_34
*599 FILLER_0_25_42
*600 FILLER_0_25_46
*601 FILLER_0_25_48
*602 FILLER_0_25_57
*603 FILLER_0_25_65
*604 FILLER_0_25_69
*605 FILLER_0_25_72
*606 FILLER_0_25_76
*607 FILLER_0_25_78
*608 FILLER_0_25_81
*609 FILLER_0_25_89
*610 FILLER_0_25_93
*611 FILLER_0_26_115
*612 FILLER_0_26_123
*613 FILLER_0_26_127
*614 FILLER_0_26_140
*615 FILLER_0_26_148
*616 FILLER_0_26_31
*617 FILLER_0_26_45
*618 FILLER_0_26_49
*619 FILLER_0_26_79
*620 FILLER_0_26_87
*621 FILLER_0_27_101
*622 FILLER_0_27_110
*623 FILLER_0_27_114
*624 FILLER_0_27_130
*625 FILLER_0_27_138
*626 FILLER_0_27_142
*627 FILLER_0_27_18
*628 FILLER_0_27_2
*629 FILLER_0_27_20
*630 FILLER_0_27_29
*631 FILLER_0_27_45
*632 FILLER_0_27_61
*633 FILLER_0_27_69
*634 FILLER_0_28_121
*635 FILLER_0_28_123
*636 FILLER_0_28_2
*637 FILLER_0_28_34
*638 FILLER_0_28_54
*639 FILLER_0_29_111
*640 FILLER_0_29_113
*641 FILLER_0_29_123
*642 FILLER_0_29_125
*643 FILLER_0_29_18
*644 FILLER_0_29_2
*645 FILLER_0_29_43
*646 FILLER_0_29_51
*647 FILLER_0_29_58
*648 FILLER_0_29_66
*649 FILLER_0_29_72
*650 FILLER_0_2_101
*651 FILLER_0_2_136
*652 FILLER_0_2_138
*653 FILLER_0_2_2
*654 FILLER_0_2_34
*655 FILLER_0_2_37
*656 FILLER_0_30_101
*657 FILLER_0_30_18
*658 FILLER_0_30_2
*659 FILLER_0_30_30
*660 FILLER_0_30_34
*661 FILLER_0_30_37
*662 FILLER_0_31_112
*663 FILLER_0_31_120
*664 FILLER_0_31_123
*665 FILLER_0_31_127
*666 FILLER_0_31_149
*667 FILLER_0_31_151
*668 FILLER_0_31_31
*669 FILLER_0_31_53
*670 FILLER_0_31_69
*671 FILLER_0_31_72
*672 FILLER_0_32_107
*673 FILLER_0_32_123
*674 FILLER_0_32_125
*675 FILLER_0_32_18
*676 FILLER_0_32_2
*677 FILLER_0_32_20
*678 FILLER_0_32_37
*679 FILLER_0_32_94
*680 FILLER_0_32_98
*681 FILLER_0_33_122
*682 FILLER_0_33_126
*683 FILLER_0_33_134
*684 FILLER_0_33_138
*685 FILLER_0_33_142
*686 FILLER_0_33_146
*687 FILLER_0_33_31
*688 FILLER_0_33_35
*689 FILLER_0_33_40
*690 FILLER_0_33_48
*691 FILLER_0_33_67
*692 FILLER_0_33_69
*693 FILLER_0_33_90
*694 FILLER_0_33_92
*695 FILLER_0_34_103
*696 FILLER_0_34_107
*697 FILLER_0_34_123
*698 FILLER_0_34_125
*699 FILLER_0_34_2
*700 FILLER_0_34_34
*701 FILLER_0_34_37
*702 FILLER_0_34_53
*703 FILLER_0_34_83
*704 FILLER_0_34_87
*705 FILLER_0_35_108
*706 FILLER_0_35_116
*707 FILLER_0_35_118
*708 FILLER_0_35_125
*709 FILLER_0_35_129
*710 FILLER_0_35_137
*711 FILLER_0_35_139
*712 FILLER_0_35_142
*713 FILLER_0_35_150
*714 FILLER_0_35_2
*715 FILLER_0_35_34
*716 FILLER_0_35_50
*717 FILLER_0_35_52
*718 FILLER_0_35_67
*719 FILLER_0_35_69
*720 FILLER_0_35_72
*721 FILLER_0_35_76
*722 FILLER_0_36_103
*723 FILLER_0_36_113
*724 FILLER_0_36_117
*725 FILLER_0_36_121
*726 FILLER_0_36_18
*727 FILLER_0_36_2
*728 FILLER_0_36_25
*729 FILLER_0_36_33
*730 FILLER_0_36_43
*731 FILLER_0_36_84
*732 FILLER_0_36_92
*733 FILLER_0_36_96
*734 FILLER_0_37_114
*735 FILLER_0_37_118
*736 FILLER_0_37_135
*737 FILLER_0_37_139
*738 FILLER_0_37_142
*739 FILLER_0_37_146
*740 FILLER_0_37_18
*741 FILLER_0_37_2
*742 FILLER_0_37_22
*743 FILLER_0_37_32
*744 FILLER_0_37_47
*745 FILLER_0_37_63
*746 FILLER_0_37_67
*747 FILLER_0_37_69
*748 FILLER_0_37_72
*749 FILLER_0_37_88
*750 FILLER_0_38_100
*751 FILLER_0_38_104
*752 FILLER_0_38_113
*753 FILLER_0_38_115
*754 FILLER_0_38_122
*755 FILLER_0_38_31
*756 FILLER_0_38_47
*757 FILLER_0_38_49
*758 FILLER_0_39_150
*759 FILLER_0_39_18
*760 FILLER_0_39_2
*761 FILLER_0_39_40
*762 FILLER_0_39_63
*763 FILLER_0_39_72
*764 FILLER_0_3_104
*765 FILLER_0_3_112
*766 FILLER_0_3_116
*767 FILLER_0_3_118
*768 FILLER_0_3_121
*769 FILLER_0_3_123
*770 FILLER_0_3_139
*771 FILLER_0_3_142
*772 FILLER_0_3_146
*773 FILLER_0_3_150
*774 FILLER_0_3_2
*775 FILLER_0_3_66
*776 FILLER_0_3_72
*777 FILLER_0_40_101
*778 FILLER_0_40_31
*779 FILLER_0_40_37
*780 FILLER_0_40_53
*781 FILLER_0_40_68
*782 FILLER_0_41_10
*783 FILLER_0_41_126
*784 FILLER_0_41_135
*785 FILLER_0_41_139
*786 FILLER_0_41_14
*787 FILLER_0_41_142
*788 FILLER_0_41_146
*789 FILLER_0_41_2
*790 FILLER_0_41_23
*791 FILLER_0_41_55
*792 FILLER_0_41_63
*793 FILLER_0_41_67
*794 FILLER_0_41_69
*795 FILLER_0_41_72
*796 FILLER_0_41_80
*797 FILLER_0_42_103
*798 FILLER_0_42_107
*799 FILLER_0_42_2
*800 FILLER_0_42_34
*801 FILLER_0_42_37
*802 FILLER_0_42_53
*803 FILLER_0_42_55
*804 FILLER_0_42_62
*805 FILLER_0_42_66
*806 FILLER_0_42_68
*807 FILLER_0_42_71
*808 FILLER_0_43_106
*809 FILLER_0_43_142
*810 FILLER_0_43_150
*811 FILLER_0_43_18
*812 FILLER_0_43_2
*813 FILLER_0_43_20
*814 FILLER_0_43_27
*815 FILLER_0_43_69
*816 FILLER_0_43_80
*817 FILLER_0_44_10
*818 FILLER_0_44_102
*819 FILLER_0_44_104
*820 FILLER_0_44_14
*821 FILLER_0_44_2
*822 FILLER_0_44_25
*823 FILLER_0_44_34
*824 FILLER_0_44_43
*825 FILLER_0_44_59
*826 FILLER_0_44_89
*827 FILLER_0_44_93
*828 FILLER_0_45_105
*829 FILLER_0_45_121
*830 FILLER_0_45_150
*831 FILLER_0_45_2
*832 FILLER_0_45_38
*833 FILLER_0_45_42
*834 FILLER_0_45_44
*835 FILLER_0_45_59
*836 FILLER_0_45_6
*837 FILLER_0_45_63
*838 FILLER_0_45_65
*839 FILLER_0_45_68
*840 FILLER_0_45_8
*841 FILLER_0_45_80
*842 FILLER_0_45_84
*843 FILLER_0_45_89
*844 FILLER_0_46_102
*845 FILLER_0_46_107
*846 FILLER_0_46_111
*847 FILLER_0_46_31
*848 FILLER_0_46_74
*849 FILLER_0_46_90
*850 FILLER_0_46_98
*851 FILLER_0_47_133
*852 FILLER_0_47_137
*853 FILLER_0_47_139
*854 FILLER_0_47_142
*855 FILLER_0_47_146
*856 FILLER_0_47_18
*857 FILLER_0_47_2
*858 FILLER_0_47_22
*859 FILLER_0_47_30
*860 FILLER_0_47_37
*861 FILLER_0_47_48
*862 FILLER_0_47_56
*863 FILLER_0_47_60
*864 FILLER_0_47_68
*865 FILLER_0_47_72
*866 FILLER_0_47_88
*867 FILLER_0_47_96
*868 FILLER_0_48_107
*869 FILLER_0_48_111
*870 FILLER_0_48_113
*871 FILLER_0_48_2
*872 FILLER_0_48_34
*873 FILLER_0_48_37
*874 FILLER_0_48_53
*875 FILLER_0_48_55
*876 FILLER_0_48_85
*877 FILLER_0_48_89
*878 FILLER_0_49_109
*879 FILLER_0_49_113
*880 FILLER_0_49_146
*881 FILLER_0_49_2
*882 FILLER_0_49_66
*883 FILLER_0_49_72
*884 FILLER_0_49_88
*885 FILLER_0_49_90
*886 FILLER_0_4_101
*887 FILLER_0_4_2
*888 FILLER_0_4_34
*889 FILLER_0_4_37
*890 FILLER_0_50_119
*891 FILLER_0_50_2
*892 FILLER_0_50_34
*893 FILLER_0_50_37
*894 FILLER_0_50_69
*895 FILLER_0_50_85
*896 FILLER_0_51_10
*897 FILLER_0_51_102
*898 FILLER_0_51_104
*899 FILLER_0_51_111
*900 FILLER_0_51_12
*901 FILLER_0_51_133
*902 FILLER_0_51_137
*903 FILLER_0_51_139
*904 FILLER_0_51_142
*905 FILLER_0_51_146
*906 FILLER_0_51_2
*907 FILLER_0_51_42
*908 FILLER_0_51_46
*909 FILLER_0_51_62
*910 FILLER_0_51_72
*911 FILLER_0_51_88
*912 FILLER_0_52_107
*913 FILLER_0_52_111
*914 FILLER_0_52_119
*915 FILLER_0_52_149
*916 FILLER_0_52_151
*917 FILLER_0_52_2
*918 FILLER_0_52_34
*919 FILLER_0_52_37
*920 FILLER_0_52_69
*921 FILLER_0_52_73
*922 FILLER_0_52_75
*923 FILLER_0_53_111
*924 FILLER_0_53_113
*925 FILLER_0_53_142
*926 FILLER_0_53_146
*927 FILLER_0_53_148
*928 FILLER_0_53_151
*929 FILLER_0_53_2
*930 FILLER_0_53_66
*931 FILLER_0_53_72
*932 FILLER_0_53_88
*933 FILLER_0_53_95
*934 FILLER_0_54_104
*935 FILLER_0_54_108
*936 FILLER_0_54_2
*937 FILLER_0_54_36
*938 FILLER_0_54_70
*939 FILLER_0_5_138
*940 FILLER_0_5_149
*941 FILLER_0_5_151
*942 FILLER_0_5_2
*943 FILLER_0_5_66
*944 FILLER_0_5_72
*945 FILLER_0_5_80
*946 FILLER_0_6_102
*947 FILLER_0_6_104
*948 FILLER_0_6_107
*949 FILLER_0_6_111
*950 FILLER_0_6_115
*951 FILLER_0_6_117
*952 FILLER_0_6_18
*953 FILLER_0_6_2
*954 FILLER_0_6_20
*955 FILLER_0_6_27
*956 FILLER_0_6_37
*957 FILLER_0_6_74
*958 FILLER_0_6_78
*959 FILLER_0_6_94
*960 FILLER_0_7_115
*961 FILLER_0_7_123
*962 FILLER_0_7_142
*963 FILLER_0_7_2
*964 FILLER_0_7_32
*965 FILLER_0_7_36
*966 FILLER_0_7_40
*967 FILLER_0_7_78
*968 FILLER_0_7_82
*969 FILLER_0_7_90
*970 FILLER_0_7_92
*971 FILLER_0_7_99
*972 FILLER_0_8_103
*973 FILLER_0_8_107
*974 FILLER_0_8_115
*975 FILLER_0_8_119
*976 FILLER_0_8_123
*977 FILLER_0_8_125
*978 FILLER_0_8_18
*979 FILLER_0_8_2
*980 FILLER_0_8_20
*981 FILLER_0_8_34
*982 FILLER_0_8_37
*983 FILLER_0_8_59
*984 FILLER_0_8_79
*985 FILLER_0_8_95
*986 FILLER_0_9_138
*987 FILLER_0_9_150
*988 FILLER_0_9_18
*989 FILLER_0_9_2
*990 FILLER_0_9_34
*991 FILLER_0_9_66
*992 FILLER_0_9_72
*993 FILLER_0_9_88
*994 PHY_EDGE_ROW_0_Left_55
*995 PHY_EDGE_ROW_0_Right_0
*996 PHY_EDGE_ROW_10_Left_65
*997 PHY_EDGE_ROW_10_Right_10
*998 PHY_EDGE_ROW_11_Left_66
*999 PHY_EDGE_ROW_11_Right_11
*1000 PHY_EDGE_ROW_12_Left_67
*1001 PHY_EDGE_ROW_12_Right_12
*1002 PHY_EDGE_ROW_13_Left_68
*1003 PHY_EDGE_ROW_13_Right_13
*1004 PHY_EDGE_ROW_14_Left_69
*1005 PHY_EDGE_ROW_14_Right_14
*1006 PHY_EDGE_ROW_15_Left_70
*1007 PHY_EDGE_ROW_15_Right_15
*1008 PHY_EDGE_ROW_16_Left_71
*1009 PHY_EDGE_ROW_16_Right_16
*1010 PHY_EDGE_ROW_17_Left_72
*1011 PHY_EDGE_ROW_17_Right_17
*1012 PHY_EDGE_ROW_18_Left_73
*1013 PHY_EDGE_ROW_18_Right_18
*1014 PHY_EDGE_ROW_19_Left_74
*1015 PHY_EDGE_ROW_19_Right_19
*1016 PHY_EDGE_ROW_1_Left_56
*1017 PHY_EDGE_ROW_1_Right_1
*1018 PHY_EDGE_ROW_20_Left_75
*1019 PHY_EDGE_ROW_20_Right_20
*1020 PHY_EDGE_ROW_21_Left_76
*1021 PHY_EDGE_ROW_21_Right_21
*1022 PHY_EDGE_ROW_22_Left_77
*1023 PHY_EDGE_ROW_22_Right_22
*1024 PHY_EDGE_ROW_23_Left_78
*1025 PHY_EDGE_ROW_23_Right_23
*1026 PHY_EDGE_ROW_24_Left_79
*1027 PHY_EDGE_ROW_24_Right_24
*1028 PHY_EDGE_ROW_25_Left_80
*1029 PHY_EDGE_ROW_25_Right_25
*1030 PHY_EDGE_ROW_26_Left_81
*1031 PHY_EDGE_ROW_26_Right_26
*1032 PHY_EDGE_ROW_27_Left_82
*1033 PHY_EDGE_ROW_27_Right_27
*1034 PHY_EDGE_ROW_28_Left_83
*1035 PHY_EDGE_ROW_28_Right_28
*1036 PHY_EDGE_ROW_29_Left_84
*1037 PHY_EDGE_ROW_29_Right_29
*1038 PHY_EDGE_ROW_2_Left_57
*1039 PHY_EDGE_ROW_2_Right_2
*1040 PHY_EDGE_ROW_30_Left_85
*1041 PHY_EDGE_ROW_30_Right_30
*1042 PHY_EDGE_ROW_31_Left_86
*1043 PHY_EDGE_ROW_31_Right_31
*1044 PHY_EDGE_ROW_32_Left_87
*1045 PHY_EDGE_ROW_32_Right_32
*1046 PHY_EDGE_ROW_33_Left_88
*1047 PHY_EDGE_ROW_33_Right_33
*1048 PHY_EDGE_ROW_34_Left_89
*1049 PHY_EDGE_ROW_34_Right_34
*1050 PHY_EDGE_ROW_35_Left_90
*1051 PHY_EDGE_ROW_35_Right_35
*1052 PHY_EDGE_ROW_36_Left_91
*1053 PHY_EDGE_ROW_36_Right_36
*1054 PHY_EDGE_ROW_37_Left_92
*1055 PHY_EDGE_ROW_37_Right_37
*1056 PHY_EDGE_ROW_38_Left_93
*1057 PHY_EDGE_ROW_38_Right_38
*1058 PHY_EDGE_ROW_39_Left_94
*1059 PHY_EDGE_ROW_39_Right_39
*1060 PHY_EDGE_ROW_3_Left_58
*1061 PHY_EDGE_ROW_3_Right_3
*1062 PHY_EDGE_ROW_40_Left_95
*1063 PHY_EDGE_ROW_40_Right_40
*1064 PHY_EDGE_ROW_41_Left_96
*1065 PHY_EDGE_ROW_41_Right_41
*1066 PHY_EDGE_ROW_42_Left_97
*1067 PHY_EDGE_ROW_42_Right_42
*1068 PHY_EDGE_ROW_43_Left_98
*1069 PHY_EDGE_ROW_43_Right_43
*1070 PHY_EDGE_ROW_44_Left_99
*1071 PHY_EDGE_ROW_44_Right_44
*1072 PHY_EDGE_ROW_45_Left_100
*1073 PHY_EDGE_ROW_45_Right_45
*1074 PHY_EDGE_ROW_46_Left_101
*1075 PHY_EDGE_ROW_46_Right_46
*1076 PHY_EDGE_ROW_47_Left_102
*1077 PHY_EDGE_ROW_47_Right_47
*1078 PHY_EDGE_ROW_48_Left_103
*1079 PHY_EDGE_ROW_48_Right_48
*1080 PHY_EDGE_ROW_49_Left_104
*1081 PHY_EDGE_ROW_49_Right_49
*1082 PHY_EDGE_ROW_4_Left_59
*1083 PHY_EDGE_ROW_4_Right_4
*1084 PHY_EDGE_ROW_50_Left_105
*1085 PHY_EDGE_ROW_50_Right_50
*1086 PHY_EDGE_ROW_51_Left_106
*1087 PHY_EDGE_ROW_51_Right_51
*1088 PHY_EDGE_ROW_52_Left_107
*1089 PHY_EDGE_ROW_52_Right_52
*1090 PHY_EDGE_ROW_53_Left_108
*1091 PHY_EDGE_ROW_53_Right_53
*1092 PHY_EDGE_ROW_54_Left_109
*1093 PHY_EDGE_ROW_54_Right_54
*1094 PHY_EDGE_ROW_5_Left_60
*1095 PHY_EDGE_ROW_5_Right_5
*1096 PHY_EDGE_ROW_6_Left_61
*1097 PHY_EDGE_ROW_6_Right_6
*1098 PHY_EDGE_ROW_7_Left_62
*1099 PHY_EDGE_ROW_7_Right_7
*1100 PHY_EDGE_ROW_8_Left_63
*1101 PHY_EDGE_ROW_8_Right_8
*1102 PHY_EDGE_ROW_9_Left_64
*1103 PHY_EDGE_ROW_9_Right_9
*1104 TAP_TAPCELL_ROW_0_110
*1105 TAP_TAPCELL_ROW_0_111
*1106 TAP_TAPCELL_ROW_0_112
*1107 TAP_TAPCELL_ROW_0_113
*1108 TAP_TAPCELL_ROW_10_132
*1109 TAP_TAPCELL_ROW_10_133
*1110 TAP_TAPCELL_ROW_11_134
*1111 TAP_TAPCELL_ROW_11_135
*1112 TAP_TAPCELL_ROW_12_136
*1113 TAP_TAPCELL_ROW_12_137
*1114 TAP_TAPCELL_ROW_13_138
*1115 TAP_TAPCELL_ROW_13_139
*1116 TAP_TAPCELL_ROW_14_140
*1117 TAP_TAPCELL_ROW_14_141
*1118 TAP_TAPCELL_ROW_15_142
*1119 TAP_TAPCELL_ROW_15_143
*1120 TAP_TAPCELL_ROW_16_144
*1121 TAP_TAPCELL_ROW_16_145
*1122 TAP_TAPCELL_ROW_17_146
*1123 TAP_TAPCELL_ROW_17_147
*1124 TAP_TAPCELL_ROW_18_148
*1125 TAP_TAPCELL_ROW_18_149
*1126 TAP_TAPCELL_ROW_19_150
*1127 TAP_TAPCELL_ROW_19_151
*1128 TAP_TAPCELL_ROW_1_114
*1129 TAP_TAPCELL_ROW_1_115
*1130 TAP_TAPCELL_ROW_20_152
*1131 TAP_TAPCELL_ROW_20_153
*1132 TAP_TAPCELL_ROW_21_154
*1133 TAP_TAPCELL_ROW_21_155
*1134 TAP_TAPCELL_ROW_22_156
*1135 TAP_TAPCELL_ROW_22_157
*1136 TAP_TAPCELL_ROW_23_158
*1137 TAP_TAPCELL_ROW_23_159
*1138 TAP_TAPCELL_ROW_24_160
*1139 TAP_TAPCELL_ROW_24_161
*1140 TAP_TAPCELL_ROW_25_162
*1141 TAP_TAPCELL_ROW_25_163
*1142 TAP_TAPCELL_ROW_26_164
*1143 TAP_TAPCELL_ROW_26_165
*1144 TAP_TAPCELL_ROW_27_166
*1145 TAP_TAPCELL_ROW_27_167
*1146 TAP_TAPCELL_ROW_28_168
*1147 TAP_TAPCELL_ROW_28_169
*1148 TAP_TAPCELL_ROW_29_170
*1149 TAP_TAPCELL_ROW_29_171
*1150 TAP_TAPCELL_ROW_2_116
*1151 TAP_TAPCELL_ROW_2_117
*1152 TAP_TAPCELL_ROW_30_172
*1153 TAP_TAPCELL_ROW_30_173
*1154 TAP_TAPCELL_ROW_31_174
*1155 TAP_TAPCELL_ROW_31_175
*1156 TAP_TAPCELL_ROW_32_176
*1157 TAP_TAPCELL_ROW_32_177
*1158 TAP_TAPCELL_ROW_33_178
*1159 TAP_TAPCELL_ROW_33_179
*1160 TAP_TAPCELL_ROW_34_180
*1161 TAP_TAPCELL_ROW_34_181
*1162 TAP_TAPCELL_ROW_35_182
*1163 TAP_TAPCELL_ROW_35_183
*1164 TAP_TAPCELL_ROW_36_184
*1165 TAP_TAPCELL_ROW_36_185
*1166 TAP_TAPCELL_ROW_37_186
*1167 TAP_TAPCELL_ROW_37_187
*1168 TAP_TAPCELL_ROW_38_188
*1169 TAP_TAPCELL_ROW_38_189
*1170 TAP_TAPCELL_ROW_39_190
*1171 TAP_TAPCELL_ROW_39_191
*1172 TAP_TAPCELL_ROW_3_118
*1173 TAP_TAPCELL_ROW_3_119
*1174 TAP_TAPCELL_ROW_40_192
*1175 TAP_TAPCELL_ROW_40_193
*1176 TAP_TAPCELL_ROW_41_194
*1177 TAP_TAPCELL_ROW_41_195
*1178 TAP_TAPCELL_ROW_42_196
*1179 TAP_TAPCELL_ROW_42_197
*1180 TAP_TAPCELL_ROW_43_198
*1181 TAP_TAPCELL_ROW_43_199
*1182 TAP_TAPCELL_ROW_44_200
*1183 TAP_TAPCELL_ROW_44_201
*1184 TAP_TAPCELL_ROW_45_202
*1185 TAP_TAPCELL_ROW_45_203
*1186 TAP_TAPCELL_ROW_46_204
*1187 TAP_TAPCELL_ROW_46_205
*1188 TAP_TAPCELL_ROW_47_206
*1189 TAP_TAPCELL_ROW_47_207
*1190 TAP_TAPCELL_ROW_48_208
*1191 TAP_TAPCELL_ROW_48_209
*1192 TAP_TAPCELL_ROW_49_210
*1193 TAP_TAPCELL_ROW_49_211
*1194 TAP_TAPCELL_ROW_4_120
*1195 TAP_TAPCELL_ROW_4_121
*1196 TAP_TAPCELL_ROW_50_212
*1197 TAP_TAPCELL_ROW_50_213
*1198 TAP_TAPCELL_ROW_51_214
*1199 TAP_TAPCELL_ROW_51_215
*1200 TAP_TAPCELL_ROW_52_216
*1201 TAP_TAPCELL_ROW_52_217
*1202 TAP_TAPCELL_ROW_53_218
*1203 TAP_TAPCELL_ROW_53_219
*1204 TAP_TAPCELL_ROW_54_220
*1205 TAP_TAPCELL_ROW_54_221
*1206 TAP_TAPCELL_ROW_54_222
*1207 TAP_TAPCELL_ROW_54_223
*1208 TAP_TAPCELL_ROW_5_122
*1209 TAP_TAPCELL_ROW_5_123
*1210 TAP_TAPCELL_ROW_6_124
*1211 TAP_TAPCELL_ROW_6_125
*1212 TAP_TAPCELL_ROW_7_126
*1213 TAP_TAPCELL_ROW_7_127
*1214 TAP_TAPCELL_ROW_8_128
*1215 TAP_TAPCELL_ROW_8_129
*1216 TAP_TAPCELL_ROW_9_130
*1217 TAP_TAPCELL_ROW_9_131
*1218 _215_
*1219 _216_
*1220 _217_
*1221 _218_
*1222 _219_
*1223 _220_
*1224 _221_
*1225 _222_
*1226 _223_
*1227 _224_
*1228 _225_
*1229 _226_
*1230 _227_
*1231 _228_
*1232 _229_
*1233 _230_
*1234 _231_
*1235 _232_
*1236 _233_
*1237 _234_
*1238 _235_
*1239 _236_
*1240 _237_
*1241 _238_
*1242 _239_
*1243 _240_
*1244 _241_
*1245 _242_
*1246 _243_
*1247 _244_
*1248 _245_
*1249 _246_
*1250 _247_
*1251 _248_
*1252 _249_
*1253 _250_
*1254 _251_
*1255 _252_
*1256 _253_
*1257 _254_
*1258 _255_
*1259 _256_
*1260 _257_
*1261 _258_
*1262 _259_
*1263 _260_
*1264 _261_
*1265 _262_
*1266 _263_
*1267 _264_
*1268 _265_
*1269 _266_
*1270 _267_
*1271 _268_
*1272 _269_
*1273 _270_
*1274 _271_
*1275 _272_
*1276 _273_
*1277 _274_
*1278 _275_
*1279 _276_
*1280 _277_
*1281 _278_
*1282 _279_
*1283 _280_
*1284 _281_
*1285 _282_
*1286 _283_
*1287 _284_
*1288 _285_
*1289 _286_
*1290 _287_
*1291 _288_
*1292 _289_
*1293 _290_
*1294 _291_
*1295 _292_
*1296 _293_
*1297 _294_
*1298 _295_
*1299 _296_
*1300 _297_
*1301 _298_
*1302 _299_
*1303 _300_
*1304 _301_
*1305 _302_
*1306 _303_
*1307 _304_
*1308 _305_
*1309 _306_
*1310 _307_
*1311 _308_
*1312 _309_
*1313 _310_
*1314 _311_
*1315 _312_
*1316 _313_
*1317 _314_
*1318 _315_
*1319 _316_
*1320 _317_
*1321 _318_
*1322 _319_
*1323 _320_
*1324 _321_
*1325 _322_
*1326 _323_
*1327 _324_
*1328 _325_
*1329 _326_
*1330 _327_
*1331 _328_
*1332 _329_
*1333 _330_
*1334 _331_
*1335 _332_
*1336 _333_
*1337 _334_
*1338 _335_
*1339 _336_
*1340 _337_
*1341 _338_
*1342 _339_
*1343 _340_
*1344 _341_
*1345 _342_
*1346 _343_
*1347 _344_
*1348 _345_
*1349 _346_
*1350 _347_
*1351 _348_
*1352 _349_
*1353 _350_
*1354 _351_
*1355 _352_
*1356 _353_
*1357 _354_
*1358 _355_
*1359 _356_
*1360 _357_
*1361 _358_
*1362 _359_
*1363 _360_
*1364 _361_
*1365 _362_
*1366 _363_
*1367 _364_
*1368 _365_
*1369 _366_
*1370 _367_
*1371 _368_
*1372 _369_
*1373 _370_
*1374 _371_
*1375 _372_
*1376 _373_
*1377 _374_
*1378 _375_
*1379 _376_
*1380 _377_
*1381 _378_
*1382 _379_
*1383 _380_
*1384 _381_
*1385 _382_
*1386 _383_
*1387 _384_
*1388 _385_
*1389 _386_
*1390 _387_
*1391 _388_
*1392 _389_
*1393 _390_
*1394 _391_
*1395 _392_
*1396 _393_
*1397 _394_
*1398 _395_
*1399 _396_
*1400 _397_
*1401 _398_
*1402 _399_
*1403 _400_
*1404 _401_
*1405 _402_
*1406 _403_
*1407 _404_
*1408 _405_
*1409 _406_
*1410 _407_
*1411 _408_
*1412 _409_
*1413 _410_
*1414 _411_
*1415 _412_
*1416 _413_
*1417 _414_
*1418 _415_
*1419 _416_
*1420 _417_
*1421 _418_
*1422 _419_
*1423 _420_
*1424 _421_
*1425 _422_
*1426 _423_
*1427 _424_
*1428 _425_
*1429 _426_
*1430 _427_
*1431 _428_
*1432 _429_
*1433 _430_
*1434 _431_
*1435 _432_
*1436 _433_
*1437 _434_
*1438 _435_
*1439 _436_
*1440 _437_
*1441 _438_
*1442 _439_
*1443 _440_
*1444 _441_
*1445 _442_
*1446 _443_
*1447 _444_
*1448 _445_
*1449 _446_
*1450 _447_
*1451 _448_
*1452 _449_
*1453 _450_
*1454 _451_
*1455 _452_
*1456 _453_
*1457 _454_
*1458 _455_
*1459 _456_
*1460 _457_
*1461 _458_
*1462 _459_
*1463 _460_
*1464 _461_
*1465 _462_
*1466 _463_
*1467 _464_
*1468 _465_
*1469 _466_
*1470 _467_
*1471 _468_
*1472 _469_
*1473 _470_
*1474 _471_
*1475 _472_
*1476 _473_
*1477 clkbuf_0_clk
*1478 clkbuf_2_0__f_clk
*1479 clkbuf_2_1__f_clk
*1480 clkbuf_2_2__f_clk
*1481 clkbuf_2_3__f_clk
*1482 fanout20
*1483 fanout21
*1484 fanout22
*1485 fanout23
*1486 fanout24
*1487 fanout25
*1488 fanout26
*1489 input1
*1490 output10
*1491 output11
*1492 output12
*1493 output13
*1494 output14
*1495 output15
*1496 output16
*1497 output17
*1498 output18
*1499 output19
*1500 output2
*1501 output3
*1502 output4
*1503 output5
*1504 output6
*1505 output7
*1506 output8
*1507 output9

*PORTS
clk I
hours[0] O
hours[1] O
hours[2] O
hours[3] O
hours[4] O
hours[5] O
hours_oeb[0] O
hours_oeb[1] O
hours_oeb[2] O
hours_oeb[3] O
hours_oeb[4] O
hours_oeb[5] O
minutes[0] O
minutes[1] O
minutes[2] O
minutes[3] O
minutes[4] O
minutes[5] O
minutes_oeb[0] O
minutes_oeb[1] O
minutes_oeb[2] O
minutes_oeb[3] O
minutes_oeb[4] O
minutes_oeb[5] O
reset I
seconds[0] O
seconds[1] O
seconds[2] O
seconds[3] O
seconds[4] O
seconds[5] O
seconds_oeb[0] O
seconds_oeb[1] O
seconds_oeb[2] O
seconds_oeb[3] O
seconds_oeb[4] O
seconds_oeb[5] O

*D_NET *1 0.0169444
*CONN
*P clk I
*I *1477:I I *D gf180mcu_fd_sc_mcu7t5v0__clkbuf_16
*I *384:I I *D gf180mcu_fd_sc_mcu7t5v0__antenna
*CAP
1 clk 0.00416269
2 *1477:I 0
3 *384:I 0.000127007
4 *1:19 0.0042897
5 *384:I *1225:A2 0.000403027
6 *384:I *113:20 1.78575e-05
7 *1:19 *354:I 0.000338397
8 *1:19 *359:I 0.000283436
9 *1:19 *1222:A1 4.90707e-05
10 *1:19 *1222:A3 0.000621336
11 *1:19 *1226:A2 0.000187673
12 *1:19 *1228:A1 9.74225e-05
13 *1:19 *1265:I 4.7031e-05
14 *1:19 *1280:A2 7.01996e-05
15 *1:19 *1297:I 3.00299e-05
16 *1:19 *1300:A1 0.00077184
17 *1:19 *1300:A2 8.55819e-05
18 *1:19 *1303:A2 2.89664e-05
19 *1:19 *1306:A2 5.09899e-05
20 *1:19 *1307:A2 9.56768e-06
21 *1:19 *1310:A3 0.000193942
22 *1:19 *1312:A2 0.000527111
23 *1:19 *1315:A2 0.000360226
24 *1:19 *1453:D 0.000286562
25 *1:19 *1454:D 0.000255714
26 *1:19 *103:25 0.000272612
27 *1:19 *103:40 0.000200997
28 *1:19 *119:10 0.000256297
29 *1:19 *119:42 0.000108482
30 *1:19 *126:10 8.0352e-06
31 *1:19 *139:16 0.00151271
32 *1:19 *142:10 0.000372137
33 *1:19 *291:34 0.000486169