*SPEF "ieee 1481-1999"
*DESIGN "user_project_wrapper"
*DATE "11:11:11 Fri 11 11, 1111"
*VENDOR "OpenRCX"
*PROGRAM "Parallel Extraction"
*VERSION "1.0"
*DESIGN_FLOW "NAME_SCOPE LOCAL" "PIN_CAP NONE"
*DIVIDER /
*DELIMITER :
*BUS_DELIMITER []
*T_UNIT 1 NS
*C_UNIT 1 PF
*R_UNIT 1 OHM
*L_UNIT 1 HENRY

*NAME_MAP
*1 io_in[0]
*2 io_in[10]
*3 io_in[11]
*4 io_in[12]
*5 io_in[13]
*6 io_in[14]
*7 io_in[15]
*8 io_in[16]
*9 io_in[17]
*10 io_in[18]
*11 io_in[19]
*12 io_in[1]
*13 io_in[20]
*14 io_in[21]
*15 io_in[22]
*16 io_in[23]
*17 io_in[24]
*18 io_in[25]
*19 io_in[26]
*20 io_in[27]
*21 io_in[28]
*22 io_in[29]
*23 io_in[2]
*24 io_in[30]
*25 io_in[31]
*26 io_in[32]
*27 io_in[33]
*28 io_in[34]
*29 io_in[35]
*30 io_in[36]
*31 io_in[37]
*32 io_in[3]
*33 io_in[4]
*34 io_in[5]
*35 io_in[6]
*36 io_in[7]
*37 io_in[8]
*38 io_in[9]
*39 io_oeb[0]
*40 io_oeb[10]
*41 io_oeb[11]
*42 io_oeb[12]
*43 io_oeb[13]
*44 io_oeb[14]
*45 io_oeb[15]
*46 io_oeb[16]
*47 io_oeb[17]
*48 io_oeb[18]
*49 io_oeb[19]
*50 io_oeb[1]
*51 io_oeb[20]
*52 io_oeb[21]
*53 io_oeb[22]
*54 io_oeb[23]
*55 io_oeb[24]
*56 io_oeb[25]
*57 io_oeb[26]
*58 io_oeb[27]
*59 io_oeb[28]
*60 io_oeb[29]
*61 io_oeb[2]
*62 io_oeb[30]
*63 io_oeb[31]
*64 io_oeb[32]
*65 io_oeb[33]
*66 io_oeb[34]
*67 io_oeb[35]
*68 io_oeb[36]
*69 io_oeb[37]
*70 io_oeb[3]
*71 io_oeb[4]
*72 io_oeb[5]
*73 io_oeb[6]
*74 io_oeb[7]
*75 io_oeb[8]
*76 io_oeb[9]
*77 io_out[0]
*78 io_out[10]
*79 io_out[11]
*80 io_out[12]
*81 io_out[13]
*82 io_out[14]
*83 io_out[15]
*84 io_out[16]
*85 io_out[17]
*86 io_out[18]
*87 io_out[19]
*88 io_out[1]
*89 io_out[20]
*90 io_out[21]
*91 io_out[22]
*92 io_out[23]
*93 io_out[24]
*94 io_out[25]
*95 io_out[26]
*96 io_out[27]
*97 io_out[28]
*98 io_out[29]
*99 io_out[2]
*100 io_out[30]
*101 io_out[31]
*102 io_out[32]
*103 io_out[33]
*104 io_out[34]
*105 io_out[35]
*106 io_out[36]
*107 io_out[37]
*108 io_out[3]
*109 io_out[4]
*110 io_out[5]
*111 io_out[6]
*112 io_out[7]
*113 io_out[8]
*114 io_out[9]
*115 la_data_in[0]
*116 la_data_in[10]
*117 la_data_in[11]
*118 la_data_in[12]
*119 la_data_in[13]
*120 la_data_in[14]
*121 la_data_in[15]
*122 la_data_in[16]
*123 la_data_in[17]
*124 la_data_in[18]
*125 la_data_in[19]
*126 la_data_in[1]
*127 la_data_in[20]
*128 la_data_in[21]
*129 la_data_in[22]
*130 la_data_in[23]
*131 la_data_in[24]
*132 la_data_in[25]
*133 la_data_in[26]
*134 la_data_in[27]
*135 la_data_in[28]
*136 la_data_in[29]
*137 la_data_in[2]
*138 la_data_in[30]
*139 la_data_in[31]
*140 la_data_in[32]
*141 la_data_in[33]
*142 la_data_in[34]
*143 la_data_in[35]
*144 la_data_in[36]
*145 la_data_in[37]
*146 la_data_in[38]
*147 la_data_in[39]
*148 la_data_in[3]
*149 la_data_in[40]
*150 la_data_in[41]
*151 la_data_in[42]
*152 la_data_in[43]
*153 la_data_in[44]
*154 la_data_in[45]
*155 la_data_in[46]
*156 la_data_in[47]
*157 la_data_in[48]
*158 la_data_in[49]
*159 la_data_in[4]
*160 la_data_in[50]
*161 la_data_in[51]
*162 la_data_in[52]
*163 la_data_in[53]
*164 la_data_in[54]
*165 la_data_in[55]
*166 la_data_in[56]
*167 la_data_in[57]
*168 la_data_in[58]
*169 la_data_in[59]
*170 la_data_in[5]
*171 la_data_in[60]
*172 la_data_in[61]
*173 la_data_in[62]
*174 la_data_in[63]
*175 la_data_in[6]
*176 la_data_in[7]
*177 la_data_in[8]
*178 la_data_in[9]
*179 la_data_out[0]
*180 la_data_out[10]
*181 la_data_out[11]
*182 la_data_out[12]
*183 la_data_out[13]
*184 la_data_out[14]
*185 la_data_out[15]
*186 la_data_out[16]
*187 la_data_out[17]
*188 la_data_out[18]
*189 la_data_out[19]
*190 la_data_out[1]
*191 la_data_out[20]
*192 la_data_out[21]
*193 la_data_out[22]
*194 la_data_out[23]
*195 la_data_out[24]
*196 la_data_out[25]
*197 la_data_out[26]
*198 la_data_out[27]
*199 la_data_out[28]
*200 la_data_out[29]
*201 la_data_out[2]
*202 la_data_out[30]
*203 la_data_out[31]
*204 la_data_out[32]
*205 la_data_out[33]
*206 la_data_out[34]
*207 la_data_out[35]
*208 la_data_out[36]
*209 la_data_out[37]
*210 la_data_out[38]
*211 la_data_out[39]
*212 la_data_out[3]
*213 la_data_out[40]
*214 la_data_out[41]
*215 la_data_out[42]
*216 la_data_out[43]
*217 la_data_out[44]
*218 la_data_out[45]
*219 la_data_out[46]
*220 la_data_out[47]
*221 la_data_out[48]
*222 la_data_out[49]
*223 la_data_out[4]
*224 la_data_out[50]
*225 la_data_out[51]
*226 la_data_out[52]
*227 la_data_out[53]
*228 la_data_out[54]
*229 la_data_out[55]
*230 la_data_out[56]
*231 la_data_out[57]
*232 la_data_out[58]
*233 la_data_out[59]
*234 la_data_out[5]
*235 la_data_out[60]
*236 la_data_out[61]
*237 la_data_out[62]
*238 la_data_out[63]
*239 la_data_out[6]
*240 la_data_out[7]
*241 la_data_out[8]
*242 la_data_out[9]
*243 la_oenb[0]
*244 la_oenb[10]
*245 la_oenb[11]
*246 la_oenb[12]
*247 la_oenb[13]
*248 la_oenb[14]
*249 la_oenb[15]
*250 la_oenb[16]
*251 la_oenb[17]
*252 la_oenb[18]
*253 la_oenb[19]
*254 la_oenb[1]
*255 la_oenb[20]
*256 la_oenb[21]
*257 la_oenb[22]
*258 la_oenb[23]
*259 la_oenb[24]
*260 la_oenb[25]
*261 la_oenb[26]
*262 la_oenb[27]
*263 la_oenb[28]
*264 la_oenb[29]
*265 la_oenb[2]
*266 la_oenb[30]
*267 la_oenb[31]
*268 la_oenb[32]
*269 la_oenb[33]
*270 la_oenb[34]
*271 la_oenb[35]
*272 la_oenb[36]
*273 la_oenb[37]
*274 la_oenb[38]
*275 la_oenb[39]
*276 la_oenb[3]
*277 la_oenb[40]
*278 la_oenb[41]
*279 la_oenb[42]
*280 la_oenb[43]
*281 la_oenb[44]
*282 la_oenb[45]
*283 la_oenb[46]
*284 la_oenb[47]
*285 la_oenb[48]
*286 la_oenb[49]
*287 la_oenb[4]
*288 la_oenb[50]
*289 la_oenb[51]
*290 la_oenb[52]
*291 la_oenb[53]
*292 la_oenb[54]
*293 la_oenb[55]
*294 la_oenb[56]
*295 la_oenb[57]
*296 la_oenb[58]
*297 la_oenb[59]
*298 la_oenb[5]
*299 la_oenb[60]
*300 la_oenb[61]
*301 la_oenb[62]
*302 la_oenb[63]
*303 la_oenb[6]
*304 la_oenb[7]
*305 la_oenb[8]
*306 la_oenb[9]
*307 user_clock2
*308 user_irq[0]
*309 user_irq[1]
*310 user_irq[2]
*313 wb_clk_i
*314 wb_rst_i
*315 wbs_ack_o
*316 wbs_adr_i[0]
*317 wbs_adr_i[10]
*318 wbs_adr_i[11]
*319 wbs_adr_i[12]
*320 wbs_adr_i[13]
*321 wbs_adr_i[14]
*322 wbs_adr_i[15]
*323 wbs_adr_i[16]
*324 wbs_adr_i[17]
*325 wbs_adr_i[18]
*326 wbs_adr_i[19]
*327 wbs_adr_i[1]
*328 wbs_adr_i[20]
*329 wbs_adr_i[21]
*330 wbs_adr_i[22]
*331 wbs_adr_i[23]
*332 wbs_adr_i[24]
*333 wbs_adr_i[25]
*334 wbs_adr_i[26]
*335 wbs_adr_i[27]
*336 wbs_adr_i[28]
*337 wbs_adr_i[29]
*338 wbs_adr_i[2]
*339 wbs_adr_i[30]
*340 wbs_adr_i[31]
*341 wbs_adr_i[3]
*342 wbs_adr_i[4]
*343 wbs_adr_i[5]
*344 wbs_adr_i[6]
*345 wbs_adr_i[7]
*346 wbs_adr_i[8]
*347 wbs_adr_i[9]
*348 wbs_cyc_i
*349 wbs_dat_i[0]
*350 wbs_dat_i[10]
*351 wbs_dat_i[11]
*352 wbs_dat_i[12]
*353 wbs_dat_i[13]
*354 wbs_dat_i[14]
*355 wbs_dat_i[15]
*356 wbs_dat_i[16]
*357 wbs_dat_i[17]
*358 wbs_dat_i[18]
*359 wbs_dat_i[19]
*360 wbs_dat_i[1]
*361 wbs_dat_i[20]
*362 wbs_dat_i[21]
*363 wbs_dat_i[22]
*364 wbs_dat_i[23]
*365 wbs_dat_i[24]
*366 wbs_dat_i[25]
*367 wbs_dat_i[26]
*368 wbs_dat_i[27]
*369 wbs_dat_i[28]
*370 wbs_dat_i[29]
*371 wbs_dat_i[2]
*372 wbs_dat_i[30]
*373 wbs_dat_i[31]
*374 wbs_dat_i[3]
*375 wbs_dat_i[4]
*376 wbs_dat_i[5]
*377 wbs_dat_i[6]
*378 wbs_dat_i[7]
*379 wbs_dat_i[8]
*380 wbs_dat_i[9]
*381 wbs_dat_o[0]
*382 wbs_dat_o[10]
*383 wbs_dat_o[11]
*384 wbs_dat_o[12]
*385 wbs_dat_o[13]
*386 wbs_dat_o[14]
*387 wbs_dat_o[15]
*388 wbs_dat_o[16]
*389 wbs_dat_o[17]
*390 wbs_dat_o[18]
*391 wbs_dat_o[19]
*392 wbs_dat_o[1]
*393 wbs_dat_o[20]
*394 wbs_dat_o[21]
*395 wbs_dat_o[22]
*396 wbs_dat_o[23]
*397 wbs_dat_o[24]
*398 wbs_dat_o[25]
*399 wbs_dat_o[26]
*400 wbs_dat_o[27]
*401 wbs_dat_o[28]
*402 wbs_dat_o[29]
*403 wbs_dat_o[2]
*404 wbs_dat_o[30]
*405 wbs_dat_o[31]
*406 wbs_dat_o[3]
*407 wbs_dat_o[4]
*408 wbs_dat_o[5]
*409 wbs_dat_o[6]
*410 wbs_dat_o[7]
*411 wbs_dat_o[8]
*412 wbs_dat_o[9]
*413 wbs_sel_i[0]
*414 wbs_sel_i[1]
*415 wbs_sel_i[2]
*416 wbs_sel_i[3]
*417 wbs_stb_i
*418 wbs_we_i
*419 DigitalClock
*420 anan_logo
*421 mprj

*PORTS
io_in[0] I
io_in[10] I
io_in[11] I
io_in[12] I
io_in[13] I
io_in[14] I
io_in[15] I
io_in[16] I
io_in[17] I
io_in[18] I
io_in[19] I
io_in[1] I
io_in[20] I
io_in[21] I
io_in[22] I
io_in[23] I
io_in[24] I
io_in[25] I
io_in[26] I
io_in[27] I
io_in[28] I
io_in[29] I
io_in[2] I
io_in[30] I
io_in[31] I
io_in[32] I
io_in[33] I
io_in[34] I
io_in[35] I
io_in[36] I
io_in[37] I
io_in[3] I
io_in[4] I
io_in[5] I
io_in[6] I
io_in[7] I
io_in[8] I
io_in[9] I
io_oeb[0] O
io_oeb[10] O
io_oeb[11] O
io_oeb[12] O
io_oeb[13] O
io_oeb[14] O
io_oeb[15] O
io_oeb[16] O
io_oeb[17] O
io_oeb[18] O
io_oeb[19] O
io_oeb[1] O
io_oeb[20] O
io_oeb[21] O
io_oeb[22] O
io_oeb[23] O
io_oeb[24] O
io_oeb[25] O
io_oeb[26] O
io_oeb[27] O
io_oeb[28] O
io_oeb[29] O
io_oeb[2] O
io_oeb[30] O
io_oeb[31] O
io_oeb[32] O
io_oeb[33] O
io_oeb[34] O
io_oeb[35] O
io_oeb[36] O
io_oeb[37] O
io_oeb[3] O
io_oeb[4] O
io_oeb[5] O
io_oeb[6] O
io_oeb[7] O
io_oeb[8] O
io_oeb[9] O
io_out[0] O
io_out[10] O
io_out[11] O
io_out[12] O
io_out[13] O
io_out[14] O
io_out[15] O
io_out[16] O
io_out[17] O
io_out[18] O
io_out[19] O
io_out[1] O
io_out[20] O
io_out[21] O
io_out[22] O
io_out[23] O
io_out[24] O
io_out[25] O
io_out[26] O
io_out[27] O
io_out[28] O
io_out[29] O
io_out[2] O
io_out[30] O
io_out[31] O
io_out[32] O
io_out[33] O
io_out[34] O
io_out[35] O
io_out[36] O
io_out[37] O
io_out[3] O
io_out[4] O
io_out[5] O
io_out[6] O
io_out[7] O
io_out[8] O
io_out[9] O
la_data_in[0] I
la_data_in[10] I
la_data_in[11] I
la_data_in[12] I
la_data_in[13] I
la_data_in[14] I
la_data_in[15] I
la_data_in[16] I
la_data_in[17] I
la_data_in[18] I
la_data_in[19] I
la_data_in[1] I
la_data_in[20] I
la_data_in[21] I
la_data_in[22] I
la_data_in[23] I
la_data_in[24] I
la_data_in[25] I
la_data_in[26] I
la_data_in[27] I
la_data_in[28] I
la_data_in[29] I
la_data_in[2] I
la_data_in[30] I
la_data_in[31] I
la_data_in[32] I
la_data_in[33] I
la_data_in[34] I
la_data_in[35] I
la_data_in[36] I
la_data_in[37] I
la_data_in[38] I
la_data_in[39] I
la_data_in[3] I
la_data_in[40] I
la_data_in[41] I
la_data_in[42] I
la_data_in[43] I
la_data_in[44] I
la_data_in[45] I
la_data_in[46] I
la_data_in[47] I
la_data_in[48] I
la_data_in[49] I
la_data_in[4] I
la_data_in[50] I
la_data_in[51] I
la_data_in[52] I
la_data_in[53] I
la_data_in[54] I
la_data_in[55] I
la_data_in[56] I
la_data_in[57] I
la_data_in[58] I
la_data_in[59] I
la_data_in[5] I
la_data_in[60] I
la_data_in[61] I
la_data_in[62] I
la_data_in[63] I
la_data_in[6] I
la_data_in[7] I
la_data_in[8] I
la_data_in[9] I
la_data_out[0] O
la_data_out[10] O
la_data_out[11] O
la_data_out[12] O
la_data_out[13] O
la_data_out[14] O
la_data_out[15] O
la_data_out[16] O
la_data_out[17] O
la_data_out[18] O
la_data_out[19] O
la_data_out[1] O
la_data_out[20] O
la_data_out[21] O
la_data_out[22] O
la_data_out[23] O
la_data_out[24] O
la_data_out[25] O
la_data_out[26] O
la_data_out[27] O
la_data_out[28] O
la_data_out[29] O
la_data_out[2] O
la_data_out[30] O
la_data_out[31] O
la_data_out[32] O
la_data_out[33] O
la_data_out[34] O
la_data_out[35] O
la_data_out[36] O
la_data_out[37] O
la_data_out[38] O
la_data_out[39] O
la_data_out[3] O
la_data_out[40] O
la_data_out[41] O
la_data_out[42] O
la_data_out[43] O
la_data_out[44] O
la_data_out[45] O
la_data_out[46] O
la_data_out[47] O
la_data_out[48] O
la_data_out[49] O
la_data_out[4] O
la_data_out[50] O
la_data_out[51] O
la_data_out[52] O
la_data_out[53] O
la_data_out[54] O
la_data_out[55] O
la_data_out[56] O
la_data_out[57] O
la_data_out[58] O
la_data_out[59] O
la_data_out[5] O
la_data_out[60] O
la_data_out[61] O
la_data_out[62] O
la_data_out[63] O
la_data_out[6] O
la_data_out[7] O
la_data_out[8] O
la_data_out[9] O
la_oenb[0] I
la_oenb[10] I
la_oenb[11] I
la_oenb[12] I
la_oenb[13] I
la_oenb[14] I
la_oenb[15] I
la_oenb[16] I
la_oenb[17] I
la_oenb[18] I
la_oenb[19] I
la_oenb[1] I
la_oenb[20] I
la_oenb[21] I
la_oenb[22] I
la_oenb[23] I
la_oenb[24] I
la_oenb[25] I
la_oenb[26] I
la_oenb[27] I
la_oenb[28] I
la_oenb[29] I
la_oenb[2] I
la_oenb[30] I
la_oenb[31] I
la_oenb[32] I
la_oenb[33] I
la_oenb[34] I
la_oenb[35] I
la_oenb[36] I
la_oenb[37] I
la_oenb[38] I
la_oenb[39] I
la_oenb[3] I
la_oenb[40] I
la_oenb[41] I
la_oenb[42] I
la_oenb[43] I
la_oenb[44] I
la_oenb[45] I
la_oenb[46] I
la_oenb[47] I
la_oenb[48] I
la_oenb[49] I
la_oenb[4] I
la_oenb[50] I
la_oenb[51] I
la_oenb[52] I
la_oenb[53] I
la_oenb[54] I
la_oenb[55] I
la_oenb[56] I
la_oenb[57] I
la_oenb[58] I
la_oenb[59] I
la_oenb[5] I
la_oenb[60] I
la_oenb[61] I
la_oenb[62] I
la_oenb[63] I
la_oenb[6] I
la_oenb[7] I
la_oenb[8] I
la_oenb[9] I
user_clock2 I
user_irq[0] O
user_irq[1] O
user_irq[2] O
wb_clk_i I
wb_rst_i I
wbs_ack_o O
wbs_adr_i[0] I
wbs_adr_i[10] I
wbs_adr_i[11] I
wbs_adr_i[12] I
wbs_adr_i[13] I
wbs_adr_i[14] I
wbs_adr_i[15] I
wbs_adr_i[16] I
wbs_adr_i[17] I
wbs_adr_i[18] I
wbs_adr_i[19] I
wbs_adr_i[1] I
wbs_adr_i[20] I
wbs_adr_i[21] I
wbs_adr_i[22] I
wbs_adr_i[23] I
wbs_adr_i[24] I
wbs_adr_i[25] I
wbs_adr_i[26] I
wbs_adr_i[27] I
wbs_adr_i[28] I
wbs_adr_i[29] I
wbs_adr_i[2] I
wbs_adr_i[30] I
wbs_adr_i[31] I
wbs_adr_i[3] I
wbs_adr_i[4] I
wbs_adr_i[5] I
wbs_adr_i[6] I
wbs_adr_i[7] I
wbs_adr_i[8] I
wbs_adr_i[9] I
wbs_cyc_i I
wbs_dat_i[0] I
wbs_dat_i[10] I
wbs_dat_i[11] I
wbs_dat_i[12] I
wbs_dat_i[13] I
wbs_dat_i[14] I
wbs_dat_i[15] I
wbs_dat_i[16] I
wbs_dat_i[17] I
wbs_dat_i[18] I
wbs_dat_i[19] I
wbs_dat_i[1] I
wbs_dat_i[20] I
wbs_dat_i[21] I
wbs_dat_i[22] I
wbs_dat_i[23] I
wbs_dat_i[24] I
wbs_dat_i[25] I
wbs_dat_i[26] I
wbs_dat_i[27] I
wbs_dat_i[28] I
wbs_dat_i[29] I
wbs_dat_i[2] I
wbs_dat_i[30] I
wbs_dat_i[31] I
wbs_dat_i[3] I
wbs_dat_i[4] I
wbs_dat_i[5] I
wbs_dat_i[6] I
wbs_dat_i[7] I
wbs_dat_i[8] I
wbs_dat_i[9] I
wbs_dat_o[0] O
wbs_dat_o[10] O
wbs_dat_o[11] O
wbs_dat_o[12] O
wbs_dat_o[13] O
wbs_dat_o[14] O
wbs_dat_o[15] O
wbs_dat_o[16] O
wbs_dat_o[17] O
wbs_dat_o[18] O
wbs_dat_o[19] O
wbs_dat_o[1] O
wbs_dat_o[20] O
wbs_dat_o[21] O
wbs_dat_o[22] O
wbs_dat_o[23] O
wbs_dat_o[24] O
wbs_dat_o[25] O
wbs_dat_o[26] O
wbs_dat_o[27] O
wbs_dat_o[28] O
wbs_dat_o[29] O
wbs_dat_o[2] O
wbs_dat_o[30] O
wbs_dat_o[31] O
wbs_dat_o[3] O
wbs_dat_o[4] O
wbs_dat_o[5] O
wbs_dat_o[6] O
wbs_dat_o[7] O
wbs_dat_o[8] O
wbs_dat_o[9] O
wbs_sel_i[0] I
wbs_sel_i[1] I
wbs_sel_i[2] I
wbs_sel_i[3] I
wbs_stb_i I
wbs_we_i I

*D_NET *1 0.865856
*CONN
*P io_in[0] I
*I *421:io_in[0] I *D user_proj_example
*CAP
1 io_in[0] 0.00119074
2 *421:io_in[0] 0
3 *1:25 0.0122611
4 *1:17 0.0164074
5 *1:15 0.00414635
6 *1:13 0.249607
7 *1:11 0.249607
8 *1:9 0.00699665
9 *1:7 0.00818739
10 *1:13 *125:21 0.235604
11 *1:13 *273:15 0.0408762
12 *1:17 *421:la_oenb[18] 0.00148791
13 *1:17 *116:21 0.0271288
14 *1:25 *421:io_in[8] 0.000534898
15 *1:25 *421:la_data_in[10] 0.000653218
16 *1:25 *421:la_data_in[35] 0.000109786
17 *1:25 *116:25 0.0013603
18 *1:25 *124:27 0.00169588
19 *1:25 *141:35 0
20 *1:25 *248:37 0.00247367
21 *1:25 *316:9 0.00172848
22 *1:25 *327:9 0.00129311
23 *1:25 *342:9 0.000153887
24 *1:25 *371:15 0.000163945
25 *1:25 *371:19 0.00105449
26 *1:25 *403:23 0.00102941
27 *1:25 *407:22 0.000104326
*RES
1 io_in[0] *1:7 14.12 
2 *1:7 *1:9 61.8614 
3 *1:9 *1:11 4.5 
4 *1:11 *1:13 422.272 
5 *1:13 *1:15 4.5 
6 *1:15 *1:17 69.6354 
7 *1:17 *1:25 47.2047 
8 *1:25 *421:io_in[0] 9 
*END

*D_NET *12 0.45828
*CONN
*P io_in[1] I
*I *421:io_in[1] I *D user_proj_example
*CAP
1 io_in[1] 0.00181599
2 *421:io_in[1] 0.000218577
3 *12:17 0.00534846
4 *12:15 0.00512988
5 *12:13 0.0729977
6 *12:11 0.0748137
7 *421:io_in[1] *421:io_in[8] 0.000455146
8 *421:io_in[1] *371:19 0.0001154
9 *421:io_in[1] *417:11 0.000421257
10 *12:11 *110:21 0.000121286
11 *12:11 *111:27 0.000590489
12 *12:13 *70:17 0.0205247
13 *12:13 *104:17 0.0251774
14 *12:13 *107:15 0
15 *12:13 *147:17 0
16 *12:13 *159:17 0.00503575
17 *12:13 *249:19 0.210406
18 *12:13 *263:17 0
19 *12:17 *33:17 0.0349875
20 *12:17 *104:21 0.000120589
*RES
1 io_in[1] *12:11 25.8591 
2 *12:11 *12:13 457.73 
3 *12:13 *12:15 4.5 
4 *12:15 *12:17 87.7351 
5 *12:17 *421:io_in[1] 12.692 
*END

*D_NET *23 0.30787
*CONN
*P io_in[2] I
*I *421:io_in[2] I *D user_proj_example
*CAP
1 io_in[2] 0.00145901
2 *421:io_in[2] 0.000246251
3 *23:25 0.00841048
4 *23:17 0.0235945
5 *23:15 0.0154303
6 *23:13 0.100192
7 *23:11 0.101651
8 *421:io_in[2] *348:11 0.000278013
9 *23:11 *111:27 0.000137392
10 *23:17 *126:29 0.0277243
11 *23:17 *260:23 0
12 *23:25 *421:io_in[5] 0.000571195
13 *23:25 *421:io_in[9] 0.000412497
14 *23:25 *421:la_data_in[0] 0.000776117
15 *23:25 *421:la_data_in[12] 0.00107767
16 *23:25 *421:la_data_in[1] 0.000721805
17 *23:25 *421:la_data_in[27] 0.000510248
18 *23:25 *421:la_data_in[28] 0.00140843
19 *23:25 *421:la_data_in[29] 0.000151433
20 *23:25 *421:la_data_in[42] 0.0161445
21 *23:25 *121:33 0.000608611
22 *23:25 *122:25 0.000411021
23 *23:25 *126:39 0.000619525
24 *23:25 *131:47 0.00221329
25 *23:25 *133:45 0.000278407
26 *23:25 *135:33 0.000729634
27 *23:25 *141:35 0.00029694
28 *23:25 *144:41 0.00181416
*RES
1 io_in[2] *23:11 20.5329 
2 *23:11 *23:13 418.085 
3 *23:13 *23:15 4.5 
4 *23:15 *23:17 157.887 
5 *23:17 *23:25 48.2821 
6 *23:25 *421:io_in[2] 11.756 
*END

*D_NET *24 0.390447
*CONN
*P io_in[30] I
*I *421:io_in[8] I *D user_proj_example
*CAP
1 io_in[30] 0.00260101
2 *421:io_in[8] 0.00138434
3 *24:9 0.00990951
4 *24:7 0.0111262
5 *421:io_in[8] *421:io_in[14] 0.000469528
6 *421:io_in[8] *314:21 2.25858e-05
7 *421:io_in[8] *371:19 0.00102701
8 *421:io_in[8] *403:23 0.00074698
9 *421:io_in[8] *417:11 0.000229341
10 *24:9 *29:9 0.0845236
11 *24:9 *69:13 0.235264
12 *24:9 *313:5 0.0421531
13 *421:io_in[1] *421:io_in[8] 0.000455146
14 *1:25 *421:io_in[8] 0.000534898
*RES
1 io_in[30] *24:7 24.312 
2 *24:7 *24:9 613.08 
3 *24:9 *421:io_in[8] 28.448 
*END

*D_NET *25 0.245877
*CONN
*P io_in[31] I
*I *421:io_in[9] I *D user_proj_example
*CAP
1 io_in[31] 0.000935833
2 *421:io_in[9] 0.00161295
3 *25:17 0.0358205
4 *25:15 0.0350351
5 *25:9 0.00699914
6 *25:7 0.00710739
7 *421:io_in[9] *421:io_in[10] 0.00171396
8 *421:io_in[9] *421:io_in[14] 0
9 *421:io_in[9] *421:io_in[15] 0.00586363
10 *421:io_in[9] *421:io_in[4] 0.0028331
11 *421:io_in[9] *421:io_in[5] 0.000872692
12 *421:io_in[9] *421:io_in[6] 0.00017121
13 *421:io_in[9] *421:la_data_in[0] 7.73714e-05
14 *421:io_in[9] *418:13 0
15 *25:9 *66:17 0.00834407
16 *25:9 *100:26 0.000733477
17 *25:9 *101:21 0.00167588
18 *25:17 *26:17 0.0109987
19 *25:17 *67:21 0.112467
20 *25:17 *103:21 0.0122021
21 *23:25 *421:io_in[9] 0.000412497
*RES
1 io_in[31] *25:7 12.248 
2 *25:7 *25:9 78.52 
3 *25:9 *25:15 14.928 
4 *25:15 *25:17 459.16 
5 *25:17 *421:io_in[9] 39.732 
*END

*D_NET *26 0.220206
*CONN
*P io_in[32] I
*I *421:io_in[10] I *D user_proj_example
*CAP
1 io_in[32] 0.000899976
2 *421:io_in[10] 0.000952567
3 *26:17 0.00565211
4 *26:15 0.00561753
5 *26:9 0.0305342
6 *26:7 0.0305162
7 *421:io_in[10] *421:io_in[14] 0
8 *421:io_in[10] *314:21 0.00045952
9 *26:9 *30:9 0.0300031
10 *26:9 *66:17 0.0816657
11 *26:9 *101:21 0.0208793
12 *26:9 *107:19 0.0003133
13 *421:io_in[9] *421:io_in[10] 0.00171396
14 *25:17 *26:17 0.0109987
*RES
1 io_in[32] *26:7 11.832 
2 *26:7 *26:9 391.352 
3 *26:9 *26:15 15.76 
4 *26:15 *26:17 67.496 
5 *26:17 *421:io_in[10] 21.012 
*END

*D_NET *27 0.209972
*CONN
*P io_in[33] I
*I *421:io_in[11] I *D user_proj_example
*CAP
1 io_in[33] 0.00312044
2 *421:io_in[11] 5.82303e-05
3 *27:9 0.0225176
4 *27:7 0.0255798
5 *27:9 *421:io_in[12] 0
6 *27:9 *65:13 0
7 *27:9 *314:21 3.96073e-05
8 *27:9 *360:37 0.146631
9 *27:9 *417:13 0.0120248
*RES
1 io_in[33] *27:7 28.264 
2 *27:7 *27:9 375.96 
3 *27:9 *421:io_in[11] 0.468 
*END

*D_NET *28 0.0833445
*CONN
*P io_in[34] I
*I *421:io_in[12] I *D user_proj_example
*CAP
1 io_in[34] 0.00335687
2 *421:io_in[12] 0.0351469
3 *28:7 0.0385038
4 *421:io_in[12] *421:io_in[13] 0.000341482
5 *421:io_in[12] *104:21 0.00599549
6 *421:io_in[12] *349:21 0
7 *27:9 *421:io_in[12] 0
*RES
1 io_in[34] *28:7 29.928 
2 *28:7 *421:io_in[12] 297.284 
*END

*D_NET *29 0.132173
*CONN
*P io_in[35] I
*I *421:io_in[13] I *D user_proj_example
*CAP
1 io_in[35] 0.00266992
2 *421:io_in[13] 0.00113494
3 *29:9 0.00329805
4 *29:7 0.00483304
5 *421:io_in[13] *348:13 0
6 *421:io_in[13] *349:21 3.62421e-05
7 *421:io_in[13] *360:35 0
8 *29:9 *313:5 0.0353356
9 *421:io_in[12] *421:io_in[13] 0.000341482
10 *24:9 *29:9 0.0845236
*RES
1 io_in[35] *29:7 24.52 
2 *29:7 *29:9 216.424 
3 *29:9 *421:io_in[13] 18.308 
*END

*D_NET *30 0.0885138
*CONN
*P io_in[36] I
*I *421:io_in[14] I *D user_proj_example
*CAP
1 io_in[36] 0.00084324
2 *421:io_in[14] 0.00270043
3 *30:9 0.0113432
4 *30:7 0.00948598
5 *421:io_in[14] wbs_ack_o 0
6 *30:9 *31:9 0.0248601
7 *30:9 *100:18 0.00391222
8 *30:9 *101:21 0.000294113
9 *30:9 *107:19 0.00460194
10 *421:io_in[10] *421:io_in[14] 0
11 *421:io_in[8] *421:io_in[14] 0.000469528
12 *421:io_in[9] *421:io_in[14] 0
13 *26:9 *30:9 0.0300031
*RES
1 io_in[36] *30:7 11.624 
2 *30:7 *30:9 142.376 
3 *30:9 *421:io_in[14] 31.1 
*END

*D_NET *31 0.046504
*CONN
*P io_in[37] I
*I *421:io_in[15] I *D user_proj_example
*CAP
1 io_in[37] 0.000847248
2 *421:io_in[15] 0.00218308
3 *31:9 0.00632833
4 *31:7 0.00499249
5 *421:io_in[15] wbs_ack_o 0.000536722
6 *421:io_in[15] *348:11 0
7 *31:9 *107:19 0.000892377
8 *421:io_in[9] *421:io_in[15] 0.00586363
9 *30:9 *31:9 0.0248601
*RES
1 io_in[37] *31:7 11.832 
2 *31:7 *31:9 66.248 
3 *31:9 *421:io_in[15] 34.532 
*END

*D_NET *32 0.27202
*CONN
*P io_in[3] I
*I *421:io_in[3] I *D user_proj_example
*CAP
1 io_in[3] 0.00139896
2 *421:io_in[3] 8.4315e-05
3 *32:17 0.0257776
4 *32:15 0.0256933
5 *32:13 0.108831
6 *32:11 0.11023
7 *32:11 *111:27 5.12752e-06
*RES
1 io_in[3] *32:11 19.4111 
2 *32:11 *32:13 454.879 
3 *32:13 *32:15 4.5 
4 *32:15 *32:17 227.511 
5 *32:17 *421:io_in[3] 9.676 
*END

*D_NET *33 0.454514
*CONN
*P io_in[4] I
*I *421:io_in[4] I *D user_proj_example
*CAP
1 io_in[4] 0.00112292
2 *421:io_in[4] 0.000344886
3 *33:17 0.00147509
4 *33:15 0.00113021
5 *33:13 0.109718
6 *33:11 0.109718
7 *33:9 0.00216024
8 *33:7 0.00328316
9 *421:io_in[4] *421:io_in[6] 0.00274076
10 *421:io_in[4] *417:11 0.000480994
11 *33:9 *35:9 0.0577611
12 *33:9 *70:21 0.0715168
13 *33:9 *110:21 0.0102594
14 *33:13 *100:14 0
15 *33:17 *35:17 0.0404811
16 *33:17 *104:21 0.000341955
17 *33:17 *349:21 0.00415861
18 *421:io_in[9] *421:io_in[4] 0.0028331
19 *12:17 *33:17 0.0349875
*RES
1 io_in[4] *33:7 13.496 
2 *33:7 *33:9 203.376 
3 *33:9 *33:11 4.5 
4 *33:11 *33:13 458.175 
5 *33:13 *33:15 4.5 
6 *33:15 *33:17 101.968 
7 *33:17 *421:io_in[4] 19.348 
*END

*D_NET *34 0.318921
*CONN
*P io_in[5] I
*I *421:io_in[5] I *D user_proj_example
*CAP
1 io_in[5] 0.00138901
2 *421:io_in[5] 0.00154664
3 *34:17 0.040173
4 *34:15 0.0386263
5 *34:13 0.106234
6 *34:11 0.107623
7 *421:io_in[5] *421:io_in[6] 0.000597381
8 *421:io_in[5] *421:la_data_in[0] 0.000821098
9 *421:io_in[5] *421:la_data_in[13] 0.00316861
10 *421:io_in[5] *121:33 0.000234643
11 *421:io_in[5] *122:25 0.00389977
12 *421:io_in[5] *381:28 0
13 *421:io_in[5] *403:23 0
14 *421:io_in[5] *417:11 0.000201661
15 *34:11 *111:27 4.59721e-05
16 *34:17 *115:21 0.0101175
17 *34:17 *128:33 0
18 *34:17 *129:43 0.00279838
19 *421:io_in[9] *421:io_in[5] 0.000872692
20 *23:25 *421:io_in[5] 0.000571195
*RES
1 io_in[5] *34:11 19.7974 
2 *34:11 *34:13 443.475 
3 *34:13 *34:15 4.5 
4 *34:15 *34:17 378.215 
5 *34:17 *421:io_in[5] 36.82 
*END

*D_NET *35 0.483411
*CONN
*P io_in[6] I
*I *421:io_in[6] I *D user_proj_example
*CAP
1 io_in[6] 0.00114553
2 *421:io_in[6] 0.0010513
3 *35:17 0.0137596
4 *35:15 0.0127083
5 *35:13 0.109606
6 *35:11 0.109606
7 *35:9 0.00917656
8 *35:7 0.0103221
9 *421:io_in[6] *403:23 0
10 *421:io_in[6] *418:13 0
11 *35:9 *110:21 0.0970375
12 *35:9 *111:27 0.00848979
13 *35:17 *104:21 0
14 *35:17 *348:13 0.00670549
15 *35:17 *349:21 0.00205132
16 *421:io_in[4] *421:io_in[6] 0.00274076
17 *421:io_in[5] *421:io_in[6] 0.000597381
18 *421:io_in[9] *421:io_in[6] 0.00017121
19 *33:9 *35:9 0.0577611
20 *33:17 *35:17 0.0404811
*RES
1 io_in[6] *35:7 13.704 
2 *35:7 *35:9 291.471 
3 *35:9 *35:11 4.5 
4 *35:11 *35:13 457.997 
5 *35:13 *35:15 4.5 
6 *35:15 *35:17 160.721 
7 *35:17 *421:io_in[6] 21.948 
*END

*D_NET *36 0.337001
*CONN
*P io_in[7] I
*I *421:io_in[7] I *D user_proj_example
*CAP
1 io_in[7] 0.00148165
2 *421:io_in[7] 0.000130949
3 *36:17 0.0585775
4 *36:15 0.0584466
5 *36:13 0.108149
6 *36:11 0.109631
7 *421:io_in[7] *314:23 0.00037585
8 *421:io_in[7] *360:31 0.000153825
9 *36:17 *418:13 5.48326e-05
*RES
1 io_in[7] *36:11 20.6443 
2 *36:11 *36:13 452.295 
3 *36:13 *36:15 4.5 
4 *36:15 *36:17 520.68 
5 *36:17 *421:io_in[7] 10.82 
*END

*D_NET *39 0.498073
*CONN
*P io_oeb[0] O
*I *421:io_oeb[0] O *D user_proj_example
*CAP
1 io_oeb[0] 0.00378
2 *421:io_oeb[0] 0.000427158
3 *39:13 0.0597899
4 *39:11 0.0560099
5 *39:9 0.0373938
6 *39:7 0.0378209
7 *39:7 *313:27 3.72641e-05
8 *39:9 *63:9 0.00219602
9 *39:9 *65:9 0.0108299
10 *39:9 *71:9 0.239857
11 *39:9 *72:17 0
12 *39:9 *156:17 0
13 *39:9 *348:17 0.000194658
14 *39:13 *71:13 0.0497365
*RES
1 *421:io_oeb[0] *39:7 7.048 
2 *39:7 *39:9 633.256 
3 *39:9 *39:11 4.5 
4 *39:11 *39:13 599.144 
5 *39:13 io_oeb[0] 35.96 
*END

*D_NET *40 0.130593
*CONN
*P io_oeb[10] O
*I *419:hours_oeb[2] O *D DigitalClock
*CAP
1 io_oeb[10] 0.0238577
2 *419:hours_oeb[2] 0.000744086
3 *40:11 0.0238577
4 *40:9 0.00321751
5 *40:7 0.00396159
6 *40:9 *78:9 0.0465115
7 *40:9 *79:9 0.0284424
*RES
1 *419:hours_oeb[2] *40:7 11 
2 *40:7 *40:9 119.912 
3 *40:9 *40:11 4.5 
4 *40:11 io_oeb[10] 208.676 
*END

*D_NET *41 0.0760976
*CONN
*P io_oeb[11] O
*I *419:hours_oeb[3] O *D DigitalClock
*CAP
1 io_oeb[11] 0.0238125
2 *419:hours_oeb[3] 0.000789299
3 *41:11 0.0238125
4 *41:9 0.00334117
5 *41:7 0.00413047
6 *41:9 *79:9 0.0200154
7 *41:9 *80:11 0.000196213
*RES
1 *419:hours_oeb[3] *41:7 11.416 
2 *41:7 *41:9 53.976 
3 *41:9 *41:11 4.5 
4 *41:11 io_oeb[11] 208.26 
*END

*D_NET *42 0.0519966
*CONN
*P io_oeb[12] O
*I *419:hours_oeb[4] O *D DigitalClock
*CAP
1 io_oeb[12] 0.0237243
2 *419:hours_oeb[4] 0.0021465
3 *42:11 0.0258708
4 *42:11 *81:9 0.000254979
*RES
1 *419:hours_oeb[4] *42:11 28.708 
2 *42:11 io_oeb[12] 207.844 
*END

*D_NET *43 0.085659
*CONN
*P io_oeb[13] O
*I *419:hours_oeb[5] O *D DigitalClock
*CAP
1 io_oeb[13] 0.0239787
2 *419:hours_oeb[5] 0.000676266
3 *43:11 0.0239787
4 *43:9 0.00592209
5 *43:7 0.00659836
6 *43:9 *55:23 0
7 *43:9 *81:9 0.0214944
8 *43:9 *83:9 0.00301049
*RES
1 *419:hours_oeb[5] *43:7 10.376 
2 *43:7 *43:9 78.52 
3 *43:9 *43:11 4.5 
4 *43:11 io_oeb[13] 209.3 
*END

*D_NET *45 0.0989873
*CONN
*P io_oeb[15] O
*I *419:minutes_oeb[0] O *D DigitalClock
*CAP
1 io_oeb[15] 0.00111232
2 *419:minutes_oeb[0] 0.00107107
3 *45:13 0.00617703
4 *45:11 0.00506471
5 *45:9 0.0166042
6 *45:7 0.0176753
7 *45:9 *86:9 0
8 *45:9 *89:9 0.00236364
9 *45:13 io_out[16] 0.00754996
10 *45:13 *83:13 0.041369
*RES
1 *419:minutes_oeb[0] *45:7 13.496 
2 *45:7 *45:9 148.408 
3 *45:9 *45:11 4.5 
4 *45:11 *45:13 103.896 
5 *45:13 io_oeb[15] 13.912 
*END

*D_NET *46 0.0742304
*CONN
*P io_oeb[16] O
*I *419:minutes_oeb[1] O *D DigitalClock
*CAP
1 io_oeb[16] 0.00820932
2 *419:minutes_oeb[1] 0.0002121
3 *46:21 0.00866031
4 *46:9 0.00234976
5 *46:7 0.00211087
6 *46:9 *48:9 0.00361971
7 *46:9 *52:9 0.0175586
8 *46:9 *57:9 0.00171226
9 *46:9 *85:9 0.00481491
10 *46:9 *90:9 0.0190009
11 *46:21 io_oeb[24] 0.00128979
12 *46:21 *48:13 0.0046919
*RES
1 *419:minutes_oeb[1] *46:7 6.216 
2 *46:7 *46:9 82.68 
3 *46:9 *46:21 30.688 
4 *46:21 io_oeb[16] 67.028 
*END

*D_NET *47 0.13385
*CONN
*P io_oeb[17] O
*I *419:minutes_oeb[2] O *D DigitalClock
*CAP
1 io_oeb[17] 0.00185693
2 *419:minutes_oeb[2] 0.00057504
3 *47:17 0.00870445
4 *47:15 0.00684752
5 *47:13 0.00819997
6 *47:11 0.00819997
7 *47:9 0.00287845
8 *47:7 0.00345349
9 *47:9 *49:9 0.0242594
10 *47:9 *55:23 0.000611458
11 *47:9 *83:9 0.000375365
12 *47:9 *91:9 0.0169262
13 *47:9 *94:15 0.000120861
14 *47:13 *48:13 0
15 *47:13 *87:13 0.0508407
16 *47:13 *95:13 0
*RES
1 *419:minutes_oeb[2] *47:7 9.128 
2 *47:7 *47:9 77.272 
3 *47:9 *47:11 4.5 
4 *47:11 *47:13 133.016 
5 *47:13 *47:15 4.5 
6 *47:15 *47:17 55.432 
7 *47:17 io_oeb[17] 23.716 
*END

*D_NET *48 0.189435
*CONN
*P io_oeb[18] O
*I *419:minutes_oeb[3] O *D DigitalClock
*CAP
1 io_oeb[18] 0.00823233
2 *419:minutes_oeb[3] 0.000303763
3 *48:15 0.00823233
4 *48:13 0.00656582
5 *48:11 0.00656582
6 *48:9 0.00445478
7 *48:7 0.00475855
8 *48:9 *52:9 0.0176524
9 *48:9 *57:9 0.00188386
10 *48:13 io_oeb[24] 0.0200952
11 *48:13 *95:13 0.102379
12 *46:9 *48:9 0.00361971
13 *46:21 *48:13 0.0046919
14 *47:13 *48:13 0
*RES
1 *419:minutes_oeb[3] *48:7 6.632 
2 *48:7 *48:9 67.912 
3 *48:9 *48:11 4.5 
4 *48:11 *48:13 258.232 
5 *48:13 *48:15 4.5 
6 *48:15 io_oeb[18] 67.444 
*END

*D_NET *49 0.149536
*CONN
*P io_oeb[19] O
*I *419:minutes_oeb[4] O *D DigitalClock
*CAP
1 io_oeb[19] 0.00684112
2 *419:minutes_oeb[4] 0.000641018
3 *49:15 0.00684112
4 *49:13 0.0439489
5 *49:11 0.0439489
6 *49:9 0.00120468
7 *49:7 0.0018457
8 *49:9 *54:9 0.0161682
9 *49:9 *55:23 0.000120785
10 *49:9 *83:9 0.0017373
11 *49:9 *91:9 0.00147596
12 *49:9 *94:15 0.000502967
13 *47:9 *49:9 0.0242594
*RES
1 *419:minutes_oeb[4] *49:7 9.336 
2 *49:7 *49:9 71.448 
3 *49:9 *49:11 4.5 
4 *49:11 *49:13 383.864 
5 *49:13 *49:15 4.5 
6 *49:15 io_oeb[19] 56.42 
*END

*D_NET *50 0.661262
*CONN
*P io_oeb[1] O
*I *421:io_oeb[1] O *D user_proj_example
*CAP
1 io_oeb[1] 0.00242125
2 *421:io_oeb[1] 0
3 *50:10 0.0385634
4 *50:8 0.0361422
5 *50:6 0.00225512
6 *50:4 0.00225512
7 *50:6 *67:15 0.000282445
8 *50:6 *72:17 0
9 *50:6 *73:6 0.249401
10 *50:6 *88:8 0.00218418
11 *50:6 *88:10 0.23512
12 *50:6 *105:6 0.000581614
13 *50:6 *349:25 0.00687295
14 *50:10 *88:14 0.0851831
*RES
1 *421:io_oeb[1] *50:4 4.5 
2 *50:4 *50:6 627.432 
3 *50:6 *50:8 4.5 
4 *50:8 *50:10 522.184 
5 *50:10 io_oeb[1] 23.064 
*END

*D_NET *51 0.17478
*CONN
*P io_oeb[20] O
*I *419:minutes_oeb[5] O *D DigitalClock
*CAP
1 io_oeb[20] 0.00567844
2 *419:minutes_oeb[5] 0.00018631
3 *51:15 0.00567844
4 *51:13 0.057194
5 *51:11 0.057194
6 *51:9 0.00120452
7 *51:7 0.00139083
8 *51:9 *53:9 0.0225014
9 *51:9 *85:9 0
10 *51:9 *87:9 0.0207621
11 *51:9 *92:9 0.00299014
*RES
1 *419:minutes_oeb[5] *51:7 5.8 
2 *51:7 *51:9 72.072 
3 *51:9 *51:11 4.5 
4 *51:11 *51:13 501.384 
5 *51:13 *51:15 4.5 
6 *51:15 io_oeb[20] 47.06 
*END

*D_NET *52 0.198339
*CONN
*P io_oeb[21] O
*I *419:seconds_oeb[0] O *D DigitalClock
*CAP
1 io_oeb[21] 0.00527403
2 *419:seconds_oeb[0] 0.000302851