*SPEF "ieee 1481-1999"
*DESIGN "user_project_wrapper"
*DATE "11:11:11 Fri 11 11, 1111"
*VENDOR "OpenRCX"
*PROGRAM "Parallel Extraction"
*VERSION "1.0"
*DESIGN_FLOW "NAME_SCOPE LOCAL" "PIN_CAP NONE"
*DIVIDER /
*DELIMITER :
*BUS_DELIMITER []
*T_UNIT 1 NS
*C_UNIT 1 PF
*R_UNIT 1 OHM
*L_UNIT 1 HENRY

*NAME_MAP
*1 io_in[0]
*2 io_in[10]
*3 io_in[11]
*4 io_in[12]
*5 io_in[13]
*6 io_in[14]
*7 io_in[15]
*8 io_in[16]
*9 io_in[17]
*10 io_in[18]
*11 io_in[19]
*12 io_in[1]
*13 io_in[20]
*14 io_in[21]
*15 io_in[22]
*16 io_in[23]
*17 io_in[24]
*18 io_in[25]
*19 io_in[26]
*20 io_in[27]
*21 io_in[28]
*22 io_in[29]
*23 io_in[2]
*24 io_in[30]
*25 io_in[31]
*26 io_in[32]
*27 io_in[33]
*28 io_in[34]
*29 io_in[35]
*30 io_in[36]
*31 io_in[37]
*32 io_in[3]
*33 io_in[4]
*34 io_in[5]
*35 io_in[6]
*36 io_in[7]
*37 io_in[8]
*38 io_in[9]
*39 io_oeb[0]
*40 io_oeb[10]
*41 io_oeb[11]
*42 io_oeb[12]
*43 io_oeb[13]
*44 io_oeb[14]
*45 io_oeb[15]
*46 io_oeb[16]
*47 io_oeb[17]
*48 io_oeb[18]
*49 io_oeb[19]
*50 io_oeb[1]
*51 io_oeb[20]
*52 io_oeb[21]
*53 io_oeb[22]
*54 io_oeb[23]
*55 io_oeb[24]
*56 io_oeb[25]
*57 io_oeb[26]
*58 io_oeb[27]
*59 io_oeb[28]
*60 io_oeb[29]
*61 io_oeb[2]
*62 io_oeb[30]
*63 io_oeb[31]
*64 io_oeb[32]
*65 io_oeb[33]
*66 io_oeb[34]
*67 io_oeb[35]
*68 io_oeb[36]
*69 io_oeb[37]
*70 io_oeb[3]
*71 io_oeb[4]
*72 io_oeb[5]
*73 io_oeb[6]
*74 io_oeb[7]
*75 io_oeb[8]
*76 io_oeb[9]
*77 io_out[0]
*78 io_out[10]
*79 io_out[11]
*80 io_out[12]
*81 io_out[13]
*82 io_out[14]
*83 io_out[15]
*84 io_out[16]
*85 io_out[17]
*86 io_out[18]
*87 io_out[19]
*88 io_out[1]
*89 io_out[20]
*90 io_out[21]
*91 io_out[22]
*92 io_out[23]
*93 io_out[24]
*94 io_out[25]
*95 io_out[26]
*96 io_out[27]
*97 io_out[28]
*98 io_out[29]
*99 io_out[2]
*100 io_out[30]
*101 io_out[31]
*102 io_out[32]
*103 io_out[33]
*104 io_out[34]
*105 io_out[35]
*106 io_out[36]
*107 io_out[37]
*108 io_out[3]
*109 io_out[4]
*110 io_out[5]
*111 io_out[6]
*112 io_out[7]
*113 io_out[8]
*114 io_out[9]
*115 la_data_in[0]
*116 la_data_in[10]
*117 la_data_in[11]
*118 la_data_in[12]
*119 la_data_in[13]
*120 la_data_in[14]
*121 la_data_in[15]
*122 la_data_in[16]
*123 la_data_in[17]
*124 la_data_in[18]
*125 la_data_in[19]
*126 la_data_in[1]
*127 la_data_in[20]
*128 la_data_in[21]
*129 la_data_in[22]
*130 la_data_in[23]
*131 la_data_in[24]
*132 la_data_in[25]
*133 la_data_in[26]
*134 la_data_in[27]
*135 la_data_in[28]
*136 la_data_in[29]
*137 la_data_in[2]
*138 la_data_in[30]
*139 la_data_in[31]
*140 la_data_in[32]
*141 la_data_in[33]
*142 la_data_in[34]
*143 la_data_in[35]
*144 la_data_in[36]
*145 la_data_in[37]
*146 la_data_in[38]
*147 la_data_in[39]
*148 la_data_in[3]
*149 la_data_in[40]
*150 la_data_in[41]
*151 la_data_in[42]
*152 la_data_in[43]
*153 la_data_in[44]
*154 la_data_in[45]
*155 la_data_in[46]
*156 la_data_in[47]
*157 la_data_in[48]
*158 la_data_in[49]
*159 la_data_in[4]
*160 la_data_in[50]
*161 la_data_in[51]
*162 la_data_in[52]
*163 la_data_in[53]
*164 la_data_in[54]
*165 la_data_in[55]
*166 la_data_in[56]
*167 la_data_in[57]
*168 la_data_in[58]
*169 la_data_in[59]
*170 la_data_in[5]
*171 la_data_in[60]
*172 la_data_in[61]
*173 la_data_in[62]
*174 la_data_in[63]
*175 la_data_in[6]
*176 la_data_in[7]
*177 la_data_in[8]
*178 la_data_in[9]
*179 la_data_out[0]
*180 la_data_out[10]
*181 la_data_out[11]
*182 la_data_out[12]
*183 la_data_out[13]
*184 la_data_out[14]
*185 la_data_out[15]
*186 la_data_out[16]
*187 la_data_out[17]
*188 la_data_out[18]
*189 la_data_out[19]
*190 la_data_out[1]
*191 la_data_out[20]
*192 la_data_out[21]
*193 la_data_out[22]
*194 la_data_out[23]
*195 la_data_out[24]
*196 la_data_out[25]
*197 la_data_out[26]
*198 la_data_out[27]
*199 la_data_out[28]
*200 la_data_out[29]
*201 la_data_out[2]
*202 la_data_out[30]
*203 la_data_out[31]
*204 la_data_out[32]
*205 la_data_out[33]
*206 la_data_out[34]
*207 la_data_out[35]
*208 la_data_out[36]
*209 la_data_out[37]
*210 la_data_out[38]
*211 la_data_out[39]
*212 la_data_out[3]
*213 la_data_out[40]
*214 la_data_out[41]
*215 la_data_out[42]
*216 la_data_out[43]
*217 la_data_out[44]
*218 la_data_out[45]
*219 la_data_out[46]
*220 la_data_out[47]
*221 la_data_out[48]
*222 la_data_out[49]
*223 la_data_out[4]
*224 la_data_out[50]
*225 la_data_out[51]
*226 la_data_out[52]
*227 la_data_out[53]
*228 la_data_out[54]
*229 la_data_out[55]
*230 la_data_out[56]
*231 la_data_out[57]
*232 la_data_out[58]
*233 la_data_out[59]
*234 la_data_out[5]
*235 la_data_out[60]
*236 la_data_out[61]
*237 la_data_out[62]
*238 la_data_out[63]
*239 la_data_out[6]
*240 la_data_out[7]
*241 la_data_out[8]
*242 la_data_out[9]
*243 la_oenb[0]
*244 la_oenb[10]
*245 la_oenb[11]
*246 la_oenb[12]
*247 la_oenb[13]
*248 la_oenb[14]
*249 la_oenb[15]
*250 la_oenb[16]
*251 la_oenb[17]
*252 la_oenb[18]
*253 la_oenb[19]
*254 la_oenb[1]
*255 la_oenb[20]
*256 la_oenb[21]
*257 la_oenb[22]
*258 la_oenb[23]
*259 la_oenb[24]
*260 la_oenb[25]
*261 la_oenb[26]
*262 la_oenb[27]
*263 la_oenb[28]
*264 la_oenb[29]
*265 la_oenb[2]
*266 la_oenb[30]
*267 la_oenb[31]
*268 la_oenb[32]
*269 la_oenb[33]
*270 la_oenb[34]
*271 la_oenb[35]
*272 la_oenb[36]
*273 la_oenb[37]
*274 la_oenb[38]
*275 la_oenb[39]
*276 la_oenb[3]
*277 la_oenb[40]
*278 la_oenb[41]
*279 la_oenb[42]
*280 la_oenb[43]
*281 la_oenb[44]
*282 la_oenb[45]
*283 la_oenb[46]
*284 la_oenb[47]
*285 la_oenb[48]
*286 la_oenb[49]
*287 la_oenb[4]
*288 la_oenb[50]
*289 la_oenb[51]
*290 la_oenb[52]
*291 la_oenb[53]
*292 la_oenb[54]
*293 la_oenb[55]
*294 la_oenb[56]
*295 la_oenb[57]
*296 la_oenb[58]
*297 la_oenb[59]
*298 la_oenb[5]
*299 la_oenb[60]
*300 la_oenb[61]
*301 la_oenb[62]
*302 la_oenb[63]
*303 la_oenb[6]
*304 la_oenb[7]
*305 la_oenb[8]
*306 la_oenb[9]
*307 user_clock2
*308 user_irq[0]
*309 user_irq[1]
*310 user_irq[2]
*313 wb_clk_i
*314 wb_rst_i
*315 wbs_ack_o
*316 wbs_adr_i[0]
*317 wbs_adr_i[10]
*318 wbs_adr_i[11]
*319 wbs_adr_i[12]
*320 wbs_adr_i[13]
*321 wbs_adr_i[14]
*322 wbs_adr_i[15]
*323 wbs_adr_i[16]
*324 wbs_adr_i[17]
*325 wbs_adr_i[18]
*326 wbs_adr_i[19]
*327 wbs_adr_i[1]
*328 wbs_adr_i[20]
*329 wbs_adr_i[21]
*330 wbs_adr_i[22]
*331 wbs_adr_i[23]
*332 wbs_adr_i[24]
*333 wbs_adr_i[25]
*334 wbs_adr_i[26]
*335 wbs_adr_i[27]
*336 wbs_adr_i[28]
*337 wbs_adr_i[29]
*338 wbs_adr_i[2]
*339 wbs_adr_i[30]
*340 wbs_adr_i[31]
*341 wbs_adr_i[3]
*342 wbs_adr_i[4]
*343 wbs_adr_i[5]
*344 wbs_adr_i[6]
*345 wbs_adr_i[7]
*346 wbs_adr_i[8]
*347 wbs_adr_i[9]
*348 wbs_cyc_i
*349 wbs_dat_i[0]
*350 wbs_dat_i[10]
*351 wbs_dat_i[11]
*352 wbs_dat_i[12]
*353 wbs_dat_i[13]
*354 wbs_dat_i[14]
*355 wbs_dat_i[15]
*356 wbs_dat_i[16]
*357 wbs_dat_i[17]
*358 wbs_dat_i[18]
*359 wbs_dat_i[19]
*360 wbs_dat_i[1]
*361 wbs_dat_i[20]
*362 wbs_dat_i[21]
*363 wbs_dat_i[22]
*364 wbs_dat_i[23]
*365 wbs_dat_i[24]
*366 wbs_dat_i[25]
*367 wbs_dat_i[26]
*368 wbs_dat_i[27]
*369 wbs_dat_i[28]
*370 wbs_dat_i[29]
*371 wbs_dat_i[2]
*372 wbs_dat_i[30]
*373 wbs_dat_i[31]
*374 wbs_dat_i[3]
*375 wbs_dat_i[4]
*376 wbs_dat_i[5]
*377 wbs_dat_i[6]
*378 wbs_dat_i[7]
*379 wbs_dat_i[8]
*380 wbs_dat_i[9]
*381 wbs_dat_o[0]
*382 wbs_dat_o[10]
*383 wbs_dat_o[11]
*384 wbs_dat_o[12]
*385 wbs_dat_o[13]
*386 wbs_dat_o[14]
*387 wbs_dat_o[15]
*388 wbs_dat_o[16]
*389 wbs_dat_o[17]
*390 wbs_dat_o[18]
*391 wbs_dat_o[19]
*392 wbs_dat_o[1]
*393 wbs_dat_o[20]
*394 wbs_dat_o[21]
*395 wbs_dat_o[22]
*396 wbs_dat_o[23]
*397 wbs_dat_o[24]
*398 wbs_dat_o[25]
*399 wbs_dat_o[26]
*400 wbs_dat_o[27]
*401 wbs_dat_o[28]
*402 wbs_dat_o[29]
*403 wbs_dat_o[2]
*404 wbs_dat_o[30]
*405 wbs_dat_o[31]
*406 wbs_dat_o[3]
*407 wbs_dat_o[4]
*408 wbs_dat_o[5]
*409 wbs_dat_o[6]
*410 wbs_dat_o[7]
*411 wbs_dat_o[8]
*412 wbs_dat_o[9]
*413 wbs_sel_i[0]
*414 wbs_sel_i[1]
*415 wbs_sel_i[2]
*416 wbs_sel_i[3]
*417 wbs_stb_i
*418 wbs_we_i
*419 DigitalClock
*420 anan_logo

*PORTS
io_in[0] I
io_in[10] I
io_in[11] I
io_in[12] I
io_in[13] I
io_in[14] I
io_in[15] I
io_in[16] I
io_in[17] I
io_in[18] I
io_in[19] I
io_in[1] I
io_in[20] I
io_in[21] I
io_in[22] I
io_in[23] I
io_in[24] I
io_in[25] I
io_in[26] I
io_in[27] I
io_in[28] I
io_in[29] I
io_in[2] I
io_in[30] I
io_in[31] I
io_in[32] I
io_in[33] I
io_in[34] I
io_in[35] I
io_in[36] I
io_in[37] I
io_in[3] I
io_in[4] I
io_in[5] I
io_in[6] I
io_in[7] I
io_in[8] I
io_in[9] I
io_oeb[0] O
io_oeb[10] O
io_oeb[11] O
io_oeb[12] O
io_oeb[13] O
io_oeb[14] O
io_oeb[15] O
io_oeb[16] O
io_oeb[17] O
io_oeb[18] O
io_oeb[19] O
io_oeb[1] O
io_oeb[20] O
io_oeb[21] O
io_oeb[22] O
io_oeb[23] O
io_oeb[24] O
io_oeb[25] O
io_oeb[26] O
io_oeb[27] O
io_oeb[28] O
io_oeb[29] O
io_oeb[2] O
io_oeb[30] O
io_oeb[31] O
io_oeb[32] O
io_oeb[33] O
io_oeb[34] O
io_oeb[35] O
io_oeb[36] O
io_oeb[37] O
io_oeb[3] O
io_oeb[4] O
io_oeb[5] O
io_oeb[6] O
io_oeb[7] O
io_oeb[8] O
io_oeb[9] O
io_out[0] O
io_out[10] O
io_out[11] O
io_out[12] O
io_out[13] O
io_out[14] O
io_out[15] O
io_out[16] O
io_out[17] O
io_out[18] O
io_out[19] O
io_out[1] O
io_out[20] O
io_out[21] O
io_out[22] O
io_out[23] O
io_out[24] O
io_out[25] O
io_out[26] O
io_out[27] O
io_out[28] O
io_out[29] O
io_out[2] O
io_out[30] O
io_out[31] O
io_out[32] O
io_out[33] O
io_out[34] O
io_out[35] O
io_out[36] O
io_out[37] O
io_out[3] O
io_out[4] O
io_out[5] O
io_out[6] O
io_out[7] O
io_out[8] O
io_out[9] O
la_data_in[0] I
la_data_in[10] I
la_data_in[11] I
la_data_in[12] I
la_data_in[13] I
la_data_in[14] I
la_data_in[15] I
la_data_in[16] I
la_data_in[17] I
la_data_in[18] I
la_data_in[19] I
la_data_in[1] I
la_data_in[20] I
la_data_in[21] I
la_data_in[22] I
la_data_in[23] I
la_data_in[24] I
la_data_in[25] I
la_data_in[26] I
la_data_in[27] I
la_data_in[28] I
la_data_in[29] I
la_data_in[2] I
la_data_in[30] I
la_data_in[31] I
la_data_in[32] I
la_data_in[33] I
la_data_in[34] I
la_data_in[35] I
la_data_in[36] I
la_data_in[37] I
la_data_in[38] I
la_data_in[39] I
la_data_in[3] I
la_data_in[40] I
la_data_in[41] I
la_data_in[42] I
la_data_in[43] I
la_data_in[44] I
la_data_in[45] I
la_data_in[46] I
la_data_in[47] I
la_data_in[48] I
la_data_in[49] I
la_data_in[4] I
la_data_in[50] I
la_data_in[51] I
la_data_in[52] I
la_data_in[53] I
la_data_in[54] I
la_data_in[55] I
la_data_in[56] I
la_data_in[57] I
la_data_in[58] I
la_data_in[59] I
la_data_in[5] I
la_data_in[60] I
la_data_in[61] I
la_data_in[62] I
la_data_in[63] I
la_data_in[6] I
la_data_in[7] I
la_data_in[8] I
la_data_in[9] I
la_data_out[0] O
la_data_out[10] O
la_data_out[11] O
la_data_out[12] O
la_data_out[13] O
la_data_out[14] O
la_data_out[15] O
la_data_out[16] O
la_data_out[17] O
la_data_out[18] O
la_data_out[19] O
la_data_out[1] O
la_data_out[20] O
la_data_out[21] O
la_data_out[22] O
la_data_out[23] O
la_data_out[24] O
la_data_out[25] O
la_data_out[26] O
la_data_out[27] O
la_data_out[28] O
la_data_out[29] O
la_data_out[2] O
la_data_out[30] O
la_data_out[31] O
la_data_out[32] O
la_data_out[33] O
la_data_out[34] O
la_data_out[35] O
la_data_out[36] O
la_data_out[37] O
la_data_out[38] O
la_data_out[39] O
la_data_out[3] O
la_data_out[40] O
la_data_out[41] O
la_data_out[42] O
la_data_out[43] O
la_data_out[44] O
la_data_out[45] O
la_data_out[46] O
la_data_out[47] O
la_data_out[48] O
la_data_out[49] O
la_data_out[4] O
la_data_out[50] O
la_data_out[51] O
la_data_out[52] O
la_data_out[53] O
la_data_out[54] O
la_data_out[55] O
la_data_out[56] O
la_data_out[57] O
la_data_out[58] O
la_data_out[59] O
la_data_out[5] O
la_data_out[60] O
la_data_out[61] O
la_data_out[62] O
la_data_out[63] O
la_data_out[6] O
la_data_out[7] O
la_data_out[8] O
la_data_out[9] O
la_oenb[0] I
la_oenb[10] I
la_oenb[11] I
la_oenb[12] I
la_oenb[13] I
la_oenb[14] I
la_oenb[15] I
la_oenb[16] I
la_oenb[17] I
la_oenb[18] I
la_oenb[19] I
la_oenb[1] I
la_oenb[20] I
la_oenb[21] I
la_oenb[22] I
la_oenb[23] I
la_oenb[24] I
la_oenb[25] I
la_oenb[26] I
la_oenb[27] I
la_oenb[28] I
la_oenb[29] I
la_oenb[2] I
la_oenb[30] I
la_oenb[31] I
la_oenb[32] I
la_oenb[33] I
la_oenb[34] I
la_oenb[35] I
la_oenb[36] I
la_oenb[37] I
la_oenb[38] I
la_oenb[39] I
la_oenb[3] I
la_oenb[40] I
la_oenb[41] I
la_oenb[42] I
la_oenb[43] I
la_oenb[44] I
la_oenb[45] I
la_oenb[46] I
la_oenb[47] I
la_oenb[48] I
la_oenb[49] I
la_oenb[4] I
la_oenb[50] I
la_oenb[51] I
la_oenb[52] I
la_oenb[53] I
la_oenb[54] I
la_oenb[55] I
la_oenb[56] I
la_oenb[57] I
la_oenb[58] I
la_oenb[59] I
la_oenb[5] I
la_oenb[60] I
la_oenb[61] I
la_oenb[62] I
la_oenb[63] I
la_oenb[6] I
la_oenb[7] I
la_oenb[8] I
la_oenb[9] I
user_clock2 I
user_irq[0] O
user_irq[1] O
user_irq[2] O
wb_clk_i I
wb_rst_i I
wbs_ack_o O
wbs_adr_i[0] I
wbs_adr_i[10] I
wbs_adr_i[11] I
wbs_adr_i[12] I
wbs_adr_i[13] I
wbs_adr_i[14] I
wbs_adr_i[15] I
wbs_adr_i[16] I
wbs_adr_i[17] I
wbs_adr_i[18] I
wbs_adr_i[19] I
wbs_adr_i[1] I
wbs_adr_i[20] I
wbs_adr_i[21] I
wbs_adr_i[22] I
wbs_adr_i[23] I
wbs_adr_i[24] I
wbs_adr_i[25] I
wbs_adr_i[26] I
wbs_adr_i[27] I
wbs_adr_i[28] I
wbs_adr_i[29] I
wbs_adr_i[2] I
wbs_adr_i[30] I
wbs_adr_i[31] I
wbs_adr_i[3] I
wbs_adr_i[4] I
wbs_adr_i[5] I
wbs_adr_i[6] I
wbs_adr_i[7] I
wbs_adr_i[8] I
wbs_adr_i[9] I
wbs_cyc_i I
wbs_dat_i[0] I
wbs_dat_i[10] I
wbs_dat_i[11] I
wbs_dat_i[12] I
wbs_dat_i[13] I
wbs_dat_i[14] I
wbs_dat_i[15] I
wbs_dat_i[16] I
wbs_dat_i[17] I
wbs_dat_i[18] I
wbs_dat_i[19] I
wbs_dat_i[1] I
wbs_dat_i[20] I
wbs_dat_i[21] I
wbs_dat_i[22] I
wbs_dat_i[23] I
wbs_dat_i[24] I
wbs_dat_i[25] I
wbs_dat_i[26] I
wbs_dat_i[27] I
wbs_dat_i[28] I
wbs_dat_i[29] I
wbs_dat_i[2] I
wbs_dat_i[30] I
wbs_dat_i[31] I
wbs_dat_i[3] I
wbs_dat_i[4] I
wbs_dat_i[5] I
wbs_dat_i[6] I
wbs_dat_i[7] I
wbs_dat_i[8] I
wbs_dat_i[9] I
wbs_dat_o[0] O
wbs_dat_o[10] O
wbs_dat_o[11] O
wbs_dat_o[12] O
wbs_dat_o[13] O
wbs_dat_o[14] O
wbs_dat_o[15] O
wbs_dat_o[16] O
wbs_dat_o[17] O
wbs_dat_o[18] O
wbs_dat_o[19] O
wbs_dat_o[1] O
wbs_dat_o[20] O
wbs_dat_o[21] O
wbs_dat_o[22] O
wbs_dat_o[23] O
wbs_dat_o[24] O
wbs_dat_o[25] O
wbs_dat_o[26] O
wbs_dat_o[27] O
wbs_dat_o[28] O
wbs_dat_o[29] O
wbs_dat_o[2] O
wbs_dat_o[30] O
wbs_dat_o[31] O
wbs_dat_o[3] O
wbs_dat_o[4] O
wbs_dat_o[5] O
wbs_dat_o[6] O
wbs_dat_o[7] O
wbs_dat_o[8] O
wbs_dat_o[9] O
wbs_sel_i[0] I
wbs_sel_i[1] I
wbs_sel_i[2] I
wbs_sel_i[3] I
wbs_stb_i I
wbs_we_i I

*D_NET *39 0.250005
*CONN
*P io_oeb[0] O
*I *419:hours_oeb[0] O *D DigitalClock
*CAP
1 io_oeb[0] 0.0983964
2 *419:hours_oeb[0] 0.000788594
3 *39:11 0.0983964
4 *39:9 0.00292529
5 *39:7 0.00371389
6 *39:9 *77:9 0.0310336
7 *39:9 *88:9 0.014751
*RES
1 *419:hours_oeb[0] *39:7 10.125 
2 *39:7 *39:9 78.93 
3 *39:9 *39:11 4.5 
4 *39:11 io_oeb[0] 791.145 
*END

*D_NET *40 0.60762
*CONN
*P io_oeb[10] O
*I *419:minutes_oeb[4] O *D DigitalClock
*CAP
1 io_oeb[10] 0.00114913
2 *419:minutes_oeb[4] 0.0982635
3 *40:9 0.0103377
4 *40:7 0.00918859
5 *40:5 0.0982635
6 *40:9 *41:9 0.000628098
7 *40:9 *42:9 0.0022385
8 *40:9 *43:9 0.00212114
9 *40:9 *70:9 0.00116658
10 *40:9 *75:9 0.156464
11 *40:9 *80:9 0.205388
12 *40:9 *82:9 0.0224118
*RES
1 *419:minutes_oeb[4] *40:5 788.625 
2 *40:5 *40:7 4.5 
3 *40:7 *40:9 515.25 
4 *40:9 io_oeb[10] 12.645 
*END

*D_NET *41 0.560651
*CONN
*P io_oeb[11] O
*I *419:minutes_oeb[5] O *D DigitalClock
*CAP
1 io_oeb[11] 0.00102613
2 *419:minutes_oeb[5] 0.122831
3 *41:9 0.0388192
4 *41:7 0.0377931
5 *41:5 0.122831
6 *41:5 io_oeb[2] 3.05754e-05
7 *41:9 *42:9 0.00076224
8 *41:9 *43:9 0.222455
9 *41:9 *112:9 0.013475
10 *40:9 *41:9 0.000628098
*RES
1 *419:minutes_oeb[5] *41:5 789.165 
2 *41:5 *41:7 4.5 
3 *41:7 *41:9 574.47 
4 *41:9 io_oeb[11] 12.105 
*END

*D_NET *42 0.714755
*CONN
*P io_oeb[12] O
*I *419:seconds_oeb[0] O *D DigitalClock
*CAP
1 io_oeb[12] 0.00108646
2 *419:seconds_oeb[0] 0.0983259
3 *42:9 0.00189861
4 *42:7 0.000812148
5 *42:5 0.0983259
6 *42:9 *43:9 0.247509
7 *42:9 *73:9 0.000122422
8 *42:9 *75:9 0.0169788
9 *42:9 *82:9 0.246694
10 *40:9 *42:9 0.0022385
11 *41:9 *42:9 0.00076224
*RES
1 *419:seconds_oeb[0] *42:5 788.805 
2 *42:5 *42:7 4.5 
3 *42:7 *42:9 633.87 
4 *42:9 io_oeb[12] 12.465 
*END

*D_NET *43 0.715864
*CONN
*P io_oeb[13] O
*I *419:seconds_oeb[1] O *D DigitalClock
*CAP
1 io_oeb[13] 0.00104771
2 *419:seconds_oeb[1] 0.0983905
3 *43:9 0.0102443
4 *43:7 0.00919661
5 *43:5 0.0983905
6 *43:9 *74:9 0.0139345
7 *43:9 *80:9 0.00125221
8 *43:9 *82:9 0.0113223
9 *40:9 *43:9 0.00212114
10 *41:9 *43:9 0.222455
11 *42:9 *43:9 0.247509
*RES
1 *419:seconds_oeb[1] *43:5 788.985 
2 *43:5 *43:7 4.5 
3 *43:7 *43:9 693.27 
4 *43:9 io_oeb[13] 12.285 
*END

*D_NET *44 0.641289
*CONN
*P io_oeb[14] O
*I *419:seconds_oeb[2] O *D DigitalClock
*CAP
1 io_oeb[14] 0.00111245
2 *419:seconds_oeb[2] 0.0982658
3 *44:9 0.0514901
4 *44:7 0.0503777
5 *44:5 0.0982658
6 *44:9 *80:9 0.054151
7 *44:9 *82:9 0.287626
*RES
1 *419:seconds_oeb[2] *44:5 788.445 
2 *44:5 *44:7 4.5 
3 *44:7 *44:9 752.67 
4 *44:9 io_oeb[14] 12.825 
*END

*D_NET *45 0.373553
*CONN
*P io_oeb[15] O
*I *419:seconds_oeb[3] O *D DigitalClock
*CAP
1 io_oeb[15] 0.0984973
2 *419:seconds_oeb[3] 0.0882795
3 *45:7 0.0984973
4 *45:5 0.0882795
*RES
1 *419:seconds_oeb[3] *45:5 708.165 
2 *45:5 *45:7 4.5 
3 *45:7 io_oeb[15] 759.645 
*END

*D_NET *46 0.346163
*CONN
*P io_oeb[16] O
*I *419:seconds_oeb[4] O *D DigitalClock
*CAP
1 io_oeb[16] 0.0979614
2 *419:seconds_oeb[4] 0.0751201
3 *46:7 0.0979614
4 *46:5 0.0751201
*RES
1 *419:seconds_oeb[4] *46:5 601.785 
2 *46:5 *46:7 4.5 
3 *46:7 io_oeb[16] 755.325 
*END

*D_NET *47 0.318545
*CONN
*P io_oeb[17] O
*I *419:seconds_oeb[5] O *D DigitalClock
*CAP
1 io_oeb[17] 0.0974255
2 *419:seconds_oeb[5] 0.061847
3 *47:7 0.0974255
4 *47:5 0.061847
*RES
1 *419:seconds_oeb[5] *47:5 495.585 
2 *47:5 *47:7 4.5 
3 *47:7 io_oeb[17] 751.005 
*END

*D_NET *50 0.204615
*CONN
*P io_oeb[1] O
*I *419:hours_oeb[1] O *D DigitalClock
*CAP
1 io_oeb[1] 0.0983317
2 *419:hours_oeb[1] 0.00234196
3 *50:11 0.100674
4 *50:11 *88:9 0.00326756
*RES
1 *419:hours_oeb[1] *50:11 34.875 
2 *50:11 io_oeb[1] 790.605 
*END

*D_NET *61 0.219199
*CONN
*P io_oeb[2] O
*I *419:hours_oeb[2] O *D DigitalClock
*CAP
1 io_oeb[2] 0.00128777
2 *419:hours_oeb[2] 0.0980296
3 *61:11 0.00402215
4 *61:5 0.100764
5 io_oeb[2] *80:5 0
6 *61:11 io_out[2] 0.000831199
7 *61:11 *70:9 0.0142335
8 *41:5 io_oeb[2] 3.05754e-05
*RES
1 *419:hours_oeb[2] *61:5 788.085 
2 *61:5 *61:11 48.87 
3 *61:11 io_oeb[2] 8.685 
*END

*D_NET *70 0.256005
*CONN
*P io_oeb[3] O
*I *419:hours_oeb[3] O *D DigitalClock
*CAP
1 io_oeb[3] 0.00131553
2 *419:hours_oeb[3] 0.098085
3 *70:9 0.00586754
4 *70:7 0.00455201
5 *70:5 0.098085
6 *70:9 io_out[2] 0.00574642
7 *70:9 *73:9 1.28836e-05
8 *70:9 *74:9 0.000418463
9 *70:9 *75:9 0.00116834
10 *70:9 *80:9 0.0252193
11 *70:9 *112:9 0.000134255
12 *40:9 *70:9 0.00116658
13 *61:11 *70:9 0.0142335
*RES
1 *419:hours_oeb[3] *70:5 788.265 
2 *70:5 *70:7 4.5 
3 *70:7 *70:9 99.27 
4 *70:9 io_oeb[3] 13.005 
*END

*D_NET *71 0.281451
*CONN
*P io_oeb[4] O
*I *419:hours_oeb[4] O *D DigitalClock
*CAP
1 io_oeb[4] 0.000961214
2 *419:hours_oeb[4] 0.0983084
3 *71:9 0.0112861
4 *71:7 0.0103249
5 *71:5 0.0983084
6 *71:9 io_out[2] 0
7 *71:9 *72:9 0.0622622
*RES
1 *419:hours_oeb[4] *71:5 789.705 
2 *71:5 *71:7 4.5 
3 *71:7 *71:9 158.67 
4 *71:9 io_oeb[4] 11.565 
*END

*D_NET *72 0.356542
*CONN
*P io_oeb[5] O
*I *419:hours_oeb[5] O *D DigitalClock
*CAP
1 io_oeb[5] 0.000982793
2 *419:hours_oeb[5] 0.0983037
3 *72:9 0.00559405
4 *72:7 0.00461126
5 *72:5 0.0983037
6 *72:9 io_out[2] 0.000155688
7 *72:9 *73:9 0.0863286
8 *71:9 *72:9 0.0622622
*RES
1 *419:hours_oeb[5] *72:5 789.525 
2 *72:5 *72:7 4.5 
3 *72:7 *72:9 218.25 
4 *72:9 io_oeb[5] 11.745 
*END

*D_NET *73 0.405668
*CONN
*P io_oeb[6] O
*I *419:minutes_oeb[0] O *D DigitalClock
*CAP
1 io_oeb[6] 0.00100437
2 *419:minutes_oeb[0] 0.0982991
3 *73:9 0.00566906
4 *73:7 0.00466469
5 *73:5 0.0982991
6 *73:5 io_out[2] 0
7 *73:9 io_out[2] 9.70658e-05
8 *73:9 *112:9 0.111171
9 *42:9 *73:9 0.000122422
10 *70:9 *73:9 1.28836e-05
11 *72:9 *73:9 0.0863286
*RES
1 *419:minutes_oeb[0] *73:5 789.345 
2 *73:5 *73:7 4.5 
3 *73:7 *73:9 277.47 
4 *73:9 io_oeb[6] 11.925 
*END

*D_NET *74 0.479251
*CONN
*P io_oeb[7] O
*I *419:minutes_oeb[1] O *D DigitalClock
*CAP
1 io_oeb[7] 0.00107163
2 *419:minutes_oeb[1] 0.098239
3 *74:9 0.00335434
4 *74:7 0.00228271
5 *74:5 0.098239
6 *74:9 *75:9 0.134247
7 *74:9 *112:9 0.127464
8 *43:9 *74:9 0.0139345
9 *70:9 *74:9 0.000418463
*RES
1 *419:minutes_oeb[1] *74:5 788.985 
2 *74:5 *74:7 4.5 
3 *74:7 *74:9 336.87 
4 *74:9 io_oeb[7] 12.285 
*END

*D_NET *75 0.517539
*CONN
*P io_oeb[8] O
*I *419:minutes_oeb[2] O *D DigitalClock
*CAP
1 io_oeb[8] 0.00111038
2 *419:minutes_oeb[2] 0.0982343
3 *75:9 0.00610645
4 *75:7 0.00499607
5 *75:5 0.0982343
6 *40:9 *75:9 0.156464
7 *42:9 *75:9 0.0169788
8 *70:9 *75:9 0.00116834
9 *74:9 *75:9 0.134247
*RES
1 *419:minutes_oeb[2] *75:5 788.805 
2 *75:5 *75:7 4.5 
3 *75:7 *75:9 396.27 
4 *75:9 io_oeb[8] 12.465 
*END

*D_NET *76 0.561378
*CONN
*P io_oeb[9] O
*I *419:minutes_oeb[3] O *D DigitalClock
*CAP
1 io_oeb[9] 0.098637
2 *419:minutes_oeb[3] 0.000788594
3 *76:11 0.098637
4 *76:9 0.00296917
5 *76:7 0.00375776
6 *76:9 *79:9 0.181254
7 *76:9 *114:9 0.175334
*RES
1 *419:minutes_oeb[3] *76:7 10.125 
2 *76:7 *76:9 455.67 
3 *76:9 *76:11 4.5 
4 *76:11 io_oeb[9] 791.145 
*END

*D_NET *77 0.244304
*CONN
*P io_out[0] O
*I *419:hours[0] O *D DigitalClock
*CAP
1 io_out[0] 0.098418
2 *419:hours[0] 0.000767015
3 *77:11 0.098418
4 *77:9 0.00745023
5 *77:7 0.00821725
6 *39:9 *77:9 0.0310336
*RES
1 *419:hours[0] *77:7 9.945 
2 *77:7 *77:9 98.19 
3 *77:9 *77:11 4.5 
4 *77:11 io_out[0] 791.325 
*END

*D_NET *78 0.320868
*CONN
*P io_out[10] O
*I *419:minutes[4] O *D DigitalClock
*CAP
1 io_out[10] 0.098318
2 *419:minutes[4] 0.00117532
3 *78:11 0.098318
4 *78:9 0.0609408
5 *78:7 0.0621161
6 *78:9 *108:9 0
*RES
1 *419:minutes[4] *78:7 12.645 
2 *78:7 *78:9 495.99 
3 *78:9 *78:11 4.5 
4 *78:11 io_out[10] 788.625 
*END

*D_NET *79 0.462437
*CONN
*P io_out[11] O
*I *419:minutes[5] O *D DigitalClock
*CAP
1 io_out[11] 0.0986327
2 *419:minutes[5] 0.000767015
3 *79:11 0.0986327
4 *79:9 0.0411919
5 *79:7 0.0419589
6 *76:9 *79:9 0.181254
*RES
1 *419:minutes[5] *79:7 9.945 
2 *79:7 *79:9 555.39 
3 *79:9 *79:11 4.5 
4 *79:11 io_out[11] 791.325 
*END

*D_NET *80 0.567499
*CONN
*P io_out[12] O
*I *419:seconds[0] O *D DigitalClock
*CAP
1 io_out[12] 0.00139112
2 *419:seconds[0] 0.0982419
3 *80:9 0.0425025
4 *80:7 0.0411113
5 *80:5 0.0982419
6 io_oeb[2] *80:5 0
7 *40:9 *80:9 0.205388
8 *43:9 *80:9 0.00125221
9 *44:9 *80:9 0.054151
10 *70:9 *80:9 0.0252193
*RES
1 *419:seconds[0] *80:5 788.445 
2 *80:5 *80:7 4.5 
3 *80:7 *80:9 614.79 
4 *80:9 io_out[12] 12.825 
*END

*D_NET *81 0.364544
*CONN
*P io_out[13] O
*I *419:seconds[1] O *D DigitalClock
*CAP
1 io_out[13] 0.0580689
2 *419:seconds[1] 0.0414228
3 *81:11 0.0580689
4 *81:9 0.0827805
5 *81:7 0.0827805
6 *81:5 0.0414228
*RES
1 *419:seconds[1] *81:5 332.145 
2 *81:5 *81:7 4.5 
3 *81:7 *81:9 674.19 
4 *81:9 *81:11 4.5 
5 *81:11 io_out[13] 464.625 
*END

*D_NET *82 0.774513
*CONN
*P io_out[14] O
*I *419:seconds[2] O *D DigitalClock
*CAP
1 io_out[14] 0.00109087
2 *419:seconds[2] 0.0983043
3 *82:9 0.00492467
4 *82:7 0.00383379
5 *82:5 0.0983043
6 *40:9 *82:9 0.0224118
7 *42:9 *82:9 0.246694
8 *43:9 *82:9 0.0113223
9 *44:9 *82:9 0.287626
*RES
1 *419:seconds[2] *82:5 788.625 
2 *82:5 *82:7 4.5 
3 *82:7 *82:9 733.59 
4 *82:9 io_out[14] 12.645 
*END

*D_NET *83 0.46705
*CONN
*P io_out[15] O
*I *419:seconds[3] O *D DigitalClock
*CAP
1 io_out[15] 0.00135906
2 *419:seconds[3] 0.0420873
3 *83:13 0.0339651
4 *83:11 0.032606
5 *83:9 0.097797
6 *83:7 0.097797
7 *83:5 0.0420873
8 *83:13 *84:13 0.119352
*RES
1 *419:seconds[3] *83:5 337.545 
2 *83:5 *83:7 4.5 
3 *83:7 *83:9 753.57 
4 *83:9 *83:11 4.5 
5 *83:11 *83:13 406.17 
6 *83:13 io_out[15] 12.825 
*END

*D_NET *84 0.490415
*CONN
*P io_out[16] O
*I *419:seconds[4] O *D DigitalClock
*CAP
1 io_out[16] 0.0010524
2 *419:seconds[4] 0.0424281
3 *84:13 0.00860456
4 *84:11 0.00755216
5 *84:9 0.0972522
6 *84:7 0.0972522
7 *84:5 0.0424281
8 *84:13 *85:13 0.0744938
9 *83:13 *84:13 0.119352
*RES
1 *419:seconds[4] *84:5 340.245 
2 *84:5 *84:7 4.5 
3 *84:7 *84:9 749.43 
4 *84:9 *84:11 4.5 
5 *84:11 *84:13 297.09 
6 *84:13 io_out[16] 12.645 
*END

*D_NET *85 0.379778
*CONN
*P io_out[17] O
*I *419:seconds[5] O *D DigitalClock
*CAP
1 io_out[17] 0.0010294
2 *419:seconds[5] 0.0431942
3 *85:13 0.0127403
4 *85:11 0.0117109
5 *85:9 0.0967075
6 *85:7 0.0967075
7 *85:5 0.0431942
8 *84:13 *85:13 0.0744938
*RES
1 *419:seconds[5] *85:5 345.645 
2 *85:5 *85:7 4.5 
3 *85:7 *85:9 745.29 
4 *85:9 *85:11 4.5 
5 *85:11 *85:13 185.31 
6 *85:13 io_out[17] 12.465 
*END

*D_NET *88 0.219564
*CONN
*P io_out[1] O
*I *419:hours[1] O *D DigitalClock
*CAP
1 io_out[1] 0.0983748
2 *419:hours[1] 0.00239795
3 *88:11 0.0983748
4 *88:9 0.00239795
5 *39:9 *88:9 0.014751
6 *50:11 *88:9 0.00326756
*RES
1 *419:hours[1] *88:9 49.095 
2 *88:9 *88:11 4.5 
3 *88:11 io_out[1] 790.965 
*END

*D_NET *99 0.207993
*CONN
*P io_out[2] O
*I *419:hours[2] O *D DigitalClock
*CAP
1 io_out[2] 0.0024813
2 *419:hours[2] 0.0980727
3 *99:5 0.100554
4 io_out[2] *112:5 5.46132e-05
5 *61:11 io_out[2] 0.000831199
6 *70:9 io_out[2] 0.00574642
7 *71:9 io_out[2] 0
8 *72:9 io_out[2] 0.000155688
9 *73:5 io_out[2] 0
10 *73:9 io_out[2] 9.70658e-05
*RES
1 *419:hours[2] *99:5 788.445 
2 *99:5 io_out[2] 38.115 
*END

*D_NET *108 0.240649
*CONN
*P io_out[3] O
*I *419:hours[3] O *D DigitalClock
*CAP
1 io_out[3] 0.0986793
2 *419:hours[3] 0.000874912
3 *108:11 0.0986793
4 *108:9 0.00559838
5 *108:7 0.00647329
6 *108:9 *109:9 0.0303436
7 *78:9 *108:9 0
*RES
1 *419:hours[3] *108:7 10.845 
2 *108:7 *108:9 80.19 
3 *108:9 *108:11 4.5 
4 *108:11 io_out[3] 790.425 
*END

*D_NET *109 0.29309
*CONN
*P io_out[4] O
*I *419:hours[4] O *D DigitalClock
*CAP
1 io_out[4] 0.0986839
2 *419:hours[4] 0.000853332
3 *109:11 0.0986839
4 *109:9 0.00462714
5 *109:7 0.00548047
6 *109:9 *110:9 0.0544178
7 *108:9 *109:9 0.0303436
*RES
1 *419:hours[4] *109:7 10.665 
2 *109:7 *109:9 139.59 
3 *109:9 *109:11 4.5 
4 *109:11 io_out[4] 790.605 
*END

*D_NET *110 0.337775
*CONN
*P io_out[5] O
*I *419:hours[5] O *D DigitalClock
*CAP
1 io_out[5] 0.0986886
2 *419:hours[5] 0.000831753
3 *110:11 0.0986886
4 *110:9 0.00552104
5 *110:7 0.00635279
6 *110:9 *114:9 0.0732748
7 *109:9 *110:9 0.0544178
*RES
1 *419:hours[5] *110:7 10.485 
2 *110:7 *110:9 198.99 
3 *110:9 *110:11 4.5 
4 *110:11 io_out[5] 790.785 
*END

*D_NET *111 0.263025
*CONN
*P io_out[6] O
*I *419:minutes[0] O *D DigitalClock
*CAP
1 io_out[6] 0.0980552
2 *419:minutes[0] 0.00146516
3 *111:11 0.0980552
4 *111:9 0.0319923
5 *111:7 0.0334575
*RES
1 *419:minutes[0] *111:7 15.345 
2 *111:7 *111:9 258.39 
3 *111:9 *111:11 4.5 
4 *111:11 io_out[6] 785.925 
*END

*D_NET *112 0.507265
*CONN
*P io_out[7] O
*I *419:minutes[1] O *D DigitalClock
*CAP
1 io_out[7] 0.00124146
2 *419:minutes[1] 0.122715
3 *112:9 0.00476747
4 *112:7 0.00352601
5 *112:5 0.122715
6 io_out[2] *112:5 5.46132e-05
7 *41:9 *112:9 0.013475
8 *70:9 *112:9 0.000134255
9 *73:9 *112:9 0.111171
10 *74:9 *112:9 0.127464
*RES
1 *419:minutes[1] *112:5 789.165 
2 *112:5 *112:7 4.5 
3 *112:7 *112:9 317.79 
4 *112:9 io_out[7] 12.105 
*END

*D_NET *113 0.291858
*CONN
*P io_out[8] O
*I *419:minutes[2] O *D DigitalClock
*CAP
1 io_out[8] 0.0976796
2 *419:minutes[2] 0.00180576
3 *113:11 0.0976796
4 *113:9 0.0464434
5 *113:7 0.0482491
*RES
1 *419:minutes[2] *113:7 18.045 
2 *113:7 *113:9 377.19 
3 *113:9 *113:11 4.5 
4 *113:11 io_out[8] 783.225 
*END

*D_NET *114 0.480682
*CONN
*P io_out[9] O
*I *419:minutes[3] O *D DigitalClock
*CAP
1 io_out[9] 0.0986154
2 *419:minutes[3] 0.000810174
3 *114:11 0.0986154
4 *114:9 0.016611
5 *114:7 0.0174212
6 *76:9 *114:9 0.175334
7 *110:9 *114:9 0.0732748
*RES
1 *419:minutes[3] *114:7 10.305 
2 *114:7 *114:9 436.59 
3 *114:9 *114:11 4.5 
4 *114:11 io_out[9] 790.965 
*END

*D_NET *313 0.11806
*CONN
*P wb_clk_i I
*I *419:clk I *D DigitalClock
*CAP
1 wb_clk_i 0.0275601
2 *419:clk 0.000634762
3 *313:9 0.00829319
4 *313:7 0.00765842
5 *313:5 0.0275601
6 *313:9 *314:9 0.0463534
*RES
1 wb_clk_i *313:5 212.805 
2 *313:5 *313:7 4.5 
3 *313:7 *313:9 118.35 
4 *313:9 *419:clk 9.225 
*END

*D_NET *314 0.121227
*CONN
*P wb_rst_i I
*I *419:reset I *D DigitalClock
*CAP
1 wb_rst_i 0.0275991
2 *419:reset 0.000657755
3 *314:9 0.00983759
4 *314:7 0.00917984
5 *314:5 0.0275991
6 *313:9 *314:9 0.0463534
*RES
1 wb_rst_i *314:5 212.985 
2 *314:5 *314:7 4.5 
3 *314:7 *314:9 131.13 
4 *314:9 *419:reset 9.405 
*END
